version 3
run General-0-20250311-05:03:30-20340
attr configname General
attr datetime 20250311-05:03:30
attr datetimef 20250311-050330
attr experiment General
attr inifile omnetpp.ini
attr iterationvars ""
attr iterationvarsd ""
attr iterationvarsf ""
attr measurement ""
attr network DDoSNetwork
attr processid 20340
attr repetition 0
attr replication #0
attr resultdir results
attr runnumber 0
attr seedset 0
config image-path ../inet4.5/images
config network DDoSNetwork
config sim-time-limit 1000s
config **.server.numApps 1
config **.server.app[0].typename TcpServerApp
config **.server.app[0].localPort 80
config **.attacker[*].numApps 1
config **.attacker[*].app[0].typename TcpServerApp
config **.attacker[*].app[0].connectAddress "\"server\""
config **.attacker[*].app[0].connectPort 80
config **.attacker[*].app[0].tOpen "uniform(0s, 1s)"
config **.attacker[*].app[0].sendBytes 0B
config **.legitimateClient[*].numApps 1
config **.legitimateClient[*].app[0].typename TcpServerApp
config **.legitimateClient[*].app[0].connectAddress "\"server\""
config **.legitimateClient[*].app[0].connectPort 80
config **.legitimateClient[*].app[0].tOpen "uniform(2s, 5s)"
config **.legitimateClient[*].app[0].sendBytes 1000B
config *.tcp.msl 1s
config *.tcp.synRetries 2
config record-eventlog true
config **.statistic-recording true
config **.server.dropSignal.vector-recording true
config **.server.dropSignal.statistic timeavg
config **.server.droppedPackets.vector-recording true
config **.server.receivedPackets.vector-recording true

par DDoSNetwork.attacker[0].ethg$o[0].channel typename "\"DDoSNetwork.Channel\""
par DDoSNetwork.attacker[0].ethg$o[0].channel disabled false
attr mutable ""
par DDoSNetwork.attacker[0].ethg$o[0].channel delay 0.1s
attr mutable ""
attr unit s
par DDoSNetwork.attacker[0].ethg$o[0].channel datarate 1e+08bps
attr mutable ""
attr unit bps
par DDoSNetwork.attacker[0].ethg$o[0].channel ber 0
attr mutable ""
par DDoSNetwork.attacker[0].ethg$o[0].channel per 0
attr mutable ""
par DDoSNetwork.server.ethg$o[0].channel typename "\"DDoSNetwork.Channel\""
par DDoSNetwork.server.ethg$o[0].channel disabled false
attr mutable ""
par DDoSNetwork.server.ethg$o[0].channel delay 0.1s
attr mutable ""
attr unit s
par DDoSNetwork.server.ethg$o[0].channel datarate 1e+08bps
attr mutable ""
attr unit bps
par DDoSNetwork.server.ethg$o[0].channel ber 0
attr mutable ""
par DDoSNetwork.server.ethg$o[0].channel per 0
attr mutable ""
par DDoSNetwork.attacker[1].ethg$o[0].channel typename "\"DDoSNetwork.Channel\""
par DDoSNetwork.attacker[1].ethg$o[0].channel disabled false
attr mutable ""
par DDoSNetwork.attacker[1].ethg$o[0].channel delay 0.1s
attr mutable ""
attr unit s
par DDoSNetwork.attacker[1].ethg$o[0].channel datarate 1e+08bps
attr mutable ""
attr unit bps
par DDoSNetwork.attacker[1].ethg$o[0].channel ber 0
attr mutable ""
par DDoSNetwork.attacker[1].ethg$o[0].channel per 0
attr mutable ""
par DDoSNetwork.server.ethg$o[1].channel typename "\"DDoSNetwork.Channel\""
par DDoSNetwork.server.ethg$o[1].channel disabled false
attr mutable ""
par DDoSNetwork.server.ethg$o[1].channel delay 0.1s
attr mutable ""
attr unit s
par DDoSNetwork.server.ethg$o[1].channel datarate 1e+08bps
attr mutable ""
attr unit bps
par DDoSNetwork.server.ethg$o[1].channel ber 0
attr mutable ""
par DDoSNetwork.server.ethg$o[1].channel per 0
attr mutable ""
par DDoSNetwork.attacker[2].ethg$o[0].channel typename "\"DDoSNetwork.Channel\""
par DDoSNetwork.attacker[2].ethg$o[0].channel disabled false
attr mutable ""
par DDoSNetwork.attacker[2].ethg$o[0].channel delay 0.1s
attr mutable ""
attr unit s
par DDoSNetwork.attacker[2].ethg$o[0].channel datarate 1e+08bps
attr mutable ""
attr unit bps
par DDoSNetwork.attacker[2].ethg$o[0].channel ber 0
attr mutable ""
par DDoSNetwork.attacker[2].ethg$o[0].channel per 0
attr mutable ""
par DDoSNetwork.server.ethg$o[2].channel typename "\"DDoSNetwork.Channel\""
par DDoSNetwork.server.ethg$o[2].channel disabled false
attr mutable ""
par DDoSNetwork.server.ethg$o[2].channel delay 0.1s
attr mutable ""
attr unit s
par DDoSNetwork.server.ethg$o[2].channel datarate 1e+08bps
attr mutable ""
attr unit bps
par DDoSNetwork.server.ethg$o[2].channel ber 0
attr mutable ""
par DDoSNetwork.server.ethg$o[2].channel per 0
attr mutable ""
par DDoSNetwork.attacker[3].ethg$o[0].channel typename "\"DDoSNetwork.Channel\""
par DDoSNetwork.attacker[3].ethg$o[0].channel disabled false
attr mutable ""
par DDoSNetwork.attacker[3].ethg$o[0].channel delay 0.1s
attr mutable ""
attr unit s
par DDoSNetwork.attacker[3].ethg$o[0].channel datarate 1e+08bps
attr mutable ""
attr unit bps
par DDoSNetwork.attacker[3].ethg$o[0].channel ber 0
attr mutable ""
par DDoSNetwork.attacker[3].ethg$o[0].channel per 0
attr mutable ""
par DDoSNetwork.server.ethg$o[3].channel typename "\"DDoSNetwork.Channel\""
par DDoSNetwork.server.ethg$o[3].channel disabled false
attr mutable ""
par DDoSNetwork.server.ethg$o[3].channel delay 0.1s
attr mutable ""
attr unit s
par DDoSNetwork.server.ethg$o[3].channel datarate 1e+08bps
attr mutable ""
attr unit bps
par DDoSNetwork.server.ethg$o[3].channel ber 0
attr mutable ""
par DDoSNetwork.server.ethg$o[3].channel per 0
attr mutable ""
par DDoSNetwork.attacker[4].ethg$o[0].channel typename "\"DDoSNetwork.Channel\""
par DDoSNetwork.attacker[4].ethg$o[0].channel disabled false
attr mutable ""
par DDoSNetwork.attacker[4].ethg$o[0].channel delay 0.1s
attr mutable ""
attr unit s
par DDoSNetwork.attacker[4].ethg$o[0].channel datarate 1e+08bps
attr mutable ""
attr unit bps
par DDoSNetwork.attacker[4].ethg$o[0].channel ber 0
attr mutable ""
par DDoSNetwork.attacker[4].ethg$o[0].channel per 0
attr mutable ""
par DDoSNetwork.server.ethg$o[4].channel typename "\"DDoSNetwork.Channel\""
par DDoSNetwork.server.ethg$o[4].channel disabled false
attr mutable ""
par DDoSNetwork.server.ethg$o[4].channel delay 0.1s
attr mutable ""
attr unit s
par DDoSNetwork.server.ethg$o[4].channel datarate 1e+08bps
attr mutable ""
attr unit bps
par DDoSNetwork.server.ethg$o[4].channel ber 0
attr mutable ""
par DDoSNetwork.server.ethg$o[4].channel per 0
attr mutable ""
par DDoSNetwork.attacker[5].ethg$o[0].channel typename "\"DDoSNetwork.Channel\""
par DDoSNetwork.attacker[5].ethg$o[0].channel disabled false
attr mutable ""
par DDoSNetwork.attacker[5].ethg$o[0].channel delay 0.1s
attr mutable ""
attr unit s
par DDoSNetwork.attacker[5].ethg$o[0].channel datarate 1e+08bps
attr mutable ""
attr unit bps
par DDoSNetwork.attacker[5].ethg$o[0].channel ber 0
attr mutable ""
par DDoSNetwork.attacker[5].ethg$o[0].channel per 0
attr mutable ""
par DDoSNetwork.server.ethg$o[5].channel typename "\"DDoSNetwork.Channel\""
par DDoSNetwork.server.ethg$o[5].channel disabled false
attr mutable ""
par DDoSNetwork.server.ethg$o[5].channel delay 0.1s
attr mutable ""
attr unit s
par DDoSNetwork.server.ethg$o[5].channel datarate 1e+08bps
attr mutable ""
attr unit bps
par DDoSNetwork.server.ethg$o[5].channel ber 0
attr mutable ""
par DDoSNetwork.server.ethg$o[5].channel per 0
attr mutable ""
par DDoSNetwork.attacker[6].ethg$o[0].channel typename "\"DDoSNetwork.Channel\""
par DDoSNetwork.attacker[6].ethg$o[0].channel disabled false
attr mutable ""
par DDoSNetwork.attacker[6].ethg$o[0].channel delay 0.1s
attr mutable ""
attr unit s
par DDoSNetwork.attacker[6].ethg$o[0].channel datarate 1e+08bps
attr mutable ""
attr unit bps
par DDoSNetwork.attacker[6].ethg$o[0].channel ber 0
attr mutable ""
par DDoSNetwork.attacker[6].ethg$o[0].channel per 0
attr mutable ""
par DDoSNetwork.server.ethg$o[6].channel typename "\"DDoSNetwork.Channel\""
par DDoSNetwork.server.ethg$o[6].channel disabled false
attr mutable ""
par DDoSNetwork.server.ethg$o[6].channel delay 0.1s
attr mutable ""
attr unit s
par DDoSNetwork.server.ethg$o[6].channel datarate 1e+08bps
attr mutable ""
attr unit bps
par DDoSNetwork.server.ethg$o[6].channel ber 0
attr mutable ""
par DDoSNetwork.server.ethg$o[6].channel per 0
attr mutable ""
par DDoSNetwork.attacker[7].ethg$o[0].channel typename "\"DDoSNetwork.Channel\""
par DDoSNetwork.attacker[7].ethg$o[0].channel disabled false
attr mutable ""
par DDoSNetwork.attacker[7].ethg$o[0].channel delay 0.1s
attr mutable ""
attr unit s
par DDoSNetwork.attacker[7].ethg$o[0].channel datarate 1e+08bps
attr mutable ""
attr unit bps
par DDoSNetwork.attacker[7].ethg$o[0].channel ber 0
attr mutable ""
par DDoSNetwork.attacker[7].ethg$o[0].channel per 0
attr mutable ""
par DDoSNetwork.server.ethg$o[7].channel typename "\"DDoSNetwork.Channel\""
par DDoSNetwork.server.ethg$o[7].channel disabled false
attr mutable ""
par DDoSNetwork.server.ethg$o[7].channel delay 0.1s
attr mutable ""
attr unit s
par DDoSNetwork.server.ethg$o[7].channel datarate 1e+08bps
attr mutable ""
attr unit bps
par DDoSNetwork.server.ethg$o[7].channel ber 0
attr mutable ""
par DDoSNetwork.server.ethg$o[7].channel per 0
attr mutable ""
par DDoSNetwork.attacker[8].ethg$o[0].channel typename "\"DDoSNetwork.Channel\""
par DDoSNetwork.attacker[8].ethg$o[0].channel disabled false
attr mutable ""
par DDoSNetwork.attacker[8].ethg$o[0].channel delay 0.1s
attr mutable ""
attr unit s
par DDoSNetwork.attacker[8].ethg$o[0].channel datarate 1e+08bps
attr mutable ""
attr unit bps
par DDoSNetwork.attacker[8].ethg$o[0].channel ber 0
attr mutable ""
par DDoSNetwork.attacker[8].ethg$o[0].channel per 0
attr mutable ""
par DDoSNetwork.server.ethg$o[8].channel typename "\"DDoSNetwork.Channel\""
par DDoSNetwork.server.ethg$o[8].channel disabled false
attr mutable ""
par DDoSNetwork.server.ethg$o[8].channel delay 0.1s
attr mutable ""
attr unit s
par DDoSNetwork.server.ethg$o[8].channel datarate 1e+08bps
attr mutable ""
attr unit bps
par DDoSNetwork.server.ethg$o[8].channel ber 0
attr mutable ""
par DDoSNetwork.server.ethg$o[8].channel per 0
attr mutable ""
par DDoSNetwork.attacker[9].ethg$o[0].channel typename "\"DDoSNetwork.Channel\""
par DDoSNetwork.attacker[9].ethg$o[0].channel disabled false
attr mutable ""
par DDoSNetwork.attacker[9].ethg$o[0].channel delay 0.1s
attr mutable ""
attr unit s
par DDoSNetwork.attacker[9].ethg$o[0].channel datarate 1e+08bps
attr mutable ""
attr unit bps
par DDoSNetwork.attacker[9].ethg$o[0].channel ber 0
attr mutable ""
par DDoSNetwork.attacker[9].ethg$o[0].channel per 0
attr mutable ""
par DDoSNetwork.server.ethg$o[9].channel typename "\"DDoSNetwork.Channel\""
par DDoSNetwork.server.ethg$o[9].channel disabled false
attr mutable ""
par DDoSNetwork.server.ethg$o[9].channel delay 0.1s
attr mutable ""
attr unit s
par DDoSNetwork.server.ethg$o[9].channel datarate 1e+08bps
attr mutable ""
attr unit bps
par DDoSNetwork.server.ethg$o[9].channel ber 0
attr mutable ""
par DDoSNetwork.server.ethg$o[9].channel per 0
attr mutable ""
par DDoSNetwork.legitimateClient[0].ethg$o[0].channel typename "\"DDoSNetwork.Channel\""
par DDoSNetwork.legitimateClient[0].ethg$o[0].channel disabled false
attr mutable ""
par DDoSNetwork.legitimateClient[0].ethg$o[0].channel delay 0.1s
attr mutable ""
attr unit s
par DDoSNetwork.legitimateClient[0].ethg$o[0].channel datarate 1e+08bps
attr mutable ""
attr unit bps
par DDoSNetwork.legitimateClient[0].ethg$o[0].channel ber 0
attr mutable ""
par DDoSNetwork.legitimateClient[0].ethg$o[0].channel per 0
attr mutable ""
par DDoSNetwork.server.ethg$o[10].channel typename "\"DDoSNetwork.Channel\""
par DDoSNetwork.server.ethg$o[10].channel disabled false
attr mutable ""
par DDoSNetwork.server.ethg$o[10].channel delay 0.1s
attr mutable ""
attr unit s
par DDoSNetwork.server.ethg$o[10].channel datarate 1e+08bps
attr mutable ""
attr unit bps
par DDoSNetwork.server.ethg$o[10].channel ber 0
attr mutable ""
par DDoSNetwork.server.ethg$o[10].channel per 0
attr mutable ""
par DDoSNetwork.legitimateClient[1].ethg$o[0].channel typename "\"DDoSNetwork.Channel\""
par DDoSNetwork.legitimateClient[1].ethg$o[0].channel disabled false
attr mutable ""
par DDoSNetwork.legitimateClient[1].ethg$o[0].channel delay 0.1s
attr mutable ""
attr unit s
par DDoSNetwork.legitimateClient[1].ethg$o[0].channel datarate 1e+08bps
attr mutable ""
attr unit bps
par DDoSNetwork.legitimateClient[1].ethg$o[0].channel ber 0
attr mutable ""
par DDoSNetwork.legitimateClient[1].ethg$o[0].channel per 0
attr mutable ""
par DDoSNetwork.server.ethg$o[11].channel typename "\"DDoSNetwork.Channel\""
par DDoSNetwork.server.ethg$o[11].channel disabled false
attr mutable ""
par DDoSNetwork.server.ethg$o[11].channel delay 0.1s
attr mutable ""
attr unit s
par DDoSNetwork.server.ethg$o[11].channel datarate 1e+08bps
attr mutable ""
attr unit bps
par DDoSNetwork.server.ethg$o[11].channel ber 0
attr mutable ""
par DDoSNetwork.server.ethg$o[11].channel per 0
attr mutable ""
par DDoSNetwork.legitimateClient[2].ethg$o[0].channel typename "\"DDoSNetwork.Channel\""
par DDoSNetwork.legitimateClient[2].ethg$o[0].channel disabled false
attr mutable ""
par DDoSNetwork.legitimateClient[2].ethg$o[0].channel delay 0.1s
attr mutable ""
attr unit s
par DDoSNetwork.legitimateClient[2].ethg$o[0].channel datarate 1e+08bps
attr mutable ""
attr unit bps
par DDoSNetwork.legitimateClient[2].ethg$o[0].channel ber 0
attr mutable ""
par DDoSNetwork.legitimateClient[2].ethg$o[0].channel per 0
attr mutable ""
par DDoSNetwork.server.ethg$o[12].channel typename "\"DDoSNetwork.Channel\""
par DDoSNetwork.server.ethg$o[12].channel disabled false
attr mutable ""
par DDoSNetwork.server.ethg$o[12].channel delay 0.1s
attr mutable ""
attr unit s
par DDoSNetwork.server.ethg$o[12].channel datarate 1e+08bps
attr mutable ""
attr unit bps
par DDoSNetwork.server.ethg$o[12].channel ber 0
attr mutable ""
par DDoSNetwork.server.ethg$o[12].channel per 0
attr mutable ""
par DDoSNetwork.server.ethg$i[0].channel typename "\"ned.IdealChannel\""
par DDoSNetwork.server.eth[0].phys$o.channel typename "\"ned.IdealChannel\""
par DDoSNetwork.server.ethg$i[1].channel typename "\"ned.IdealChannel\""
par DDoSNetwork.server.eth[1].phys$o.channel typename "\"ned.IdealChannel\""
par DDoSNetwork.server.ethg$i[2].channel typename "\"ned.IdealChannel\""
par DDoSNetwork.server.eth[2].phys$o.channel typename "\"ned.IdealChannel\""
par DDoSNetwork.server.ethg$i[3].channel typename "\"ned.IdealChannel\""
par DDoSNetwork.server.eth[3].phys$o.channel typename "\"ned.IdealChannel\""
par DDoSNetwork.server.ethg$i[4].channel typename "\"ned.IdealChannel\""
par DDoSNetwork.server.eth[4].phys$o.channel typename "\"ned.IdealChannel\""
par DDoSNetwork.server.ethg$i[5].channel typename "\"ned.IdealChannel\""
par DDoSNetwork.server.eth[5].phys$o.channel typename "\"ned.IdealChannel\""
par DDoSNetwork.server.ethg$i[6].channel typename "\"ned.IdealChannel\""
par DDoSNetwork.server.eth[6].phys$o.channel typename "\"ned.IdealChannel\""
par DDoSNetwork.server.ethg$i[7].channel typename "\"ned.IdealChannel\""
par DDoSNetwork.server.eth[7].phys$o.channel typename "\"ned.IdealChannel\""
par DDoSNetwork.server.ethg$i[8].channel typename "\"ned.IdealChannel\""
par DDoSNetwork.server.eth[8].phys$o.channel typename "\"ned.IdealChannel\""
par DDoSNetwork.server.ethg$i[9].channel typename "\"ned.IdealChannel\""
par DDoSNetwork.server.eth[9].phys$o.channel typename "\"ned.IdealChannel\""
par DDoSNetwork.server.ethg$i[10].channel typename "\"ned.IdealChannel\""
par DDoSNetwork.server.eth[10].phys$o.channel typename "\"ned.IdealChannel\""
par DDoSNetwork.server.ethg$i[11].channel typename "\"ned.IdealChannel\""
par DDoSNetwork.server.eth[11].phys$o.channel typename "\"ned.IdealChannel\""
par DDoSNetwork.server.ethg$i[12].channel typename "\"ned.IdealChannel\""
par DDoSNetwork.server.eth[12].phys$o.channel typename "\"ned.IdealChannel\""
par DDoSNetwork.server.interfaceTable typename "\"inet.networklayer.common.InterfaceTable\""
par DDoSNetwork.server.interfaceTable displayAddresses false
par DDoSNetwork.server.cb typename "\"inet.common.MessageDispatcher\""
par DDoSNetwork.server.cb displayStringTextFormat "\"processed %p pk (%l)\""
par DDoSNetwork.server.cb forwardServiceRegistration true
par DDoSNetwork.server.cb forwardProtocolRegistration true
par DDoSNetwork.server.bl typename "\"inet.common.MessageDispatcher\""
par DDoSNetwork.server.bl displayStringTextFormat "\"processed %p pk (%l)\""
par DDoSNetwork.server.bl forwardServiceRegistration true
par DDoSNetwork.server.bl forwardProtocolRegistration true
par DDoSNetwork.server.ethernet typename "\"inet.linklayer.ethernet.basic.EthernetEncapsulation\""
par DDoSNetwork.server.ethernet registerProtocol true
par DDoSNetwork.server.ethernet interfaceTableModule "\"DDoSNetwork.server.interfaceTable\""
par DDoSNetwork.server.ethernet fcsMode "\"declared\""
attr enum declared,computed
par DDoSNetwork.server.ethernet stopOperationExtraTime -1s
attr unit s
par DDoSNetwork.server.ethernet stopOperationTimeout 2s
attr unit s
scalar DDoSNetwork.server.ethernet decapPk:count 0
attr interpolationmode none
attr recordingmode count
attr source decapPk
attr title "packets decapsulated, count"
scalar DDoSNetwork.server.ethernet decapPk:sum(packetBytes) 0
attr interpolationmode none
attr recordingmode sum(packetBytes)
attr source decapPk
attr title "packets decapsulated, sum(packetBytes)"
scalar DDoSNetwork.server.ethernet encapPk:count 0
attr interpolationmode none
attr recordingmode count
attr source encapPk
attr title "packets encapsulated, count"
scalar DDoSNetwork.server.ethernet encapPk:sum(packetBytes) 0
attr interpolationmode none
attr recordingmode sum(packetBytes)
attr source encapPk
attr title "packets encapsulated, sum(packetBytes)"
scalar DDoSNetwork.server.ethernet pauseSent:count 0
attr recordingmode count
attr title "pause sent, count"
scalar DDoSNetwork.server.ethernet pauseSent:sum 0
attr recordingmode sum
attr title "pause sent, sum"
par DDoSNetwork.server.li typename "\"inet.common.MessageDispatcher\""
par DDoSNetwork.server.li displayStringTextFormat "\"processed %p pk (%l)\""
par DDoSNetwork.server.li forwardServiceRegistration true
par DDoSNetwork.server.li forwardProtocolRegistration true
par DDoSNetwork.server.lo[0].upperLayerIn.channel typename "\"ned.IdealChannel\""
par DDoSNetwork.server.lo[0].lo.upperLayerOut.channel typename "\"ned.IdealChannel\""
par DDoSNetwork.server.lo[0].lo typename "\"inet.linklayer.loopback.Loopback\""
par DDoSNetwork.server.lo[0].lo interfaceTableModule "\"DDoSNetwork.server.interfaceTable\""
par DDoSNetwork.server.lo[0].lo mtu 4470B
attr unit B
scalar DDoSNetwork.server.lo[0].lo rcvdPkFromHl:count 0
attr interpolationmode none
attr recordingmode count
attr source packetReceivedFromUpper
attr title "packets received from higher layer, count"
scalar DDoSNetwork.server.lo[0].lo rcvdPkFromHl:sum(packetBytes) 0
attr interpolationmode none
attr recordingmode sum(packetBytes)
attr source packetReceivedFromUpper
attr title "packets received from higher layer, sum(packetBytes)"
scalar DDoSNetwork.server.lo[0].lo passedUpPk:count 0
attr interpolationmode none
attr recordingmode count
attr source packetSentToUpper
attr title "packets passed to higher layer, count"
scalar DDoSNetwork.server.lo[0].lo passedUpPk:sum(packetBytes) 0
attr interpolationmode none
attr recordingmode sum(packetBytes)
attr source packetSentToUpper
attr title "packets passed to higher layer, sum(packetBytes)"
par DDoSNetwork.server.lo[0] typename "\"inet.linklayer.loopback.LoopbackInterface\""
par DDoSNetwork.server.lo[0] displayStringTextFormat "\"%a (%i)\\n%m\""
par DDoSNetwork.server.lo[0] recordPcap false
par DDoSNetwork.server.lo[0] numPcapRecorders 0
par DDoSNetwork.server.lo[0] interfaceTableModule "\"DDoSNetwork.server.interfaceTable\""
scalar DDoSNetwork.server.lo[0] packetDropInterfaceDown:count 0
attr interpolationmode none
attr recordingmode count
attr source packetDropReasonIsInterfaceDown(packetDropped)
attr title "packet drops: interface down, count"
scalar DDoSNetwork.server.lo[0] packetDropInterfaceDown:sum(packetBytes) 0
attr interpolationmode none
attr recordingmode sum(packetBytes)
attr source packetDropReasonIsInterfaceDown(packetDropped)
attr title "packet drops: interface down, sum(packetBytes)"
scalar DDoSNetwork.server.lo[0] packetDropNoCarrier:count 0
attr interpolationmode none
attr recordingmode count
attr source packetDropReasonIsNoCarrier(packetDropped)
attr title "packet drops: no carrier, count"
scalar DDoSNetwork.server.lo[0] packetDropNoCarrier:sum(packetBytes) 0
attr interpolationmode none
attr recordingmode sum(packetBytes)
attr source packetDropReasonIsNoCarrier(packetDropped)
attr title "packet drops: no carrier, sum(packetBytes)"
par DDoSNetwork.server.eth[0].mac.phys$o.channel typename "\"ned.IdealChannel\""
par DDoSNetwork.server.eth[0].phys$i.channel typename "\"ned.IdealChannel\""
par DDoSNetwork.server.eth[0].upperLayerIn.channel typename "\"ned.IdealChannel\""
par DDoSNetwork.server.eth[0].mac.upperLayerOut.channel typename "\"ned.IdealChannel\""
par DDoSNetwork.server.eth[0].queue typename "\"inet.linklayer.ethernet.common.EthernetQueue\""
par DDoSNetwork.server.eth[0].queue displayStringTextFormat "\"contains %p pk (%l) pushed %u\\npulled %o removed %r dropped %d\""
par DDoSNetwork.server.eth[0].queue packetCapacity 1000
par DDoSNetwork.server.eth[0].queue dataCapacity -1b
attr unit b
par DDoSNetwork.server.eth[0].queue dropperClass "\"inet::queueing::PacketAtCollectionEndDropper\""
par DDoSNetwork.server.eth[0].queue comparatorClass "\"inet::EthernetFrameTypeComparator\""
par DDoSNetwork.server.eth[0].queue bufferModule "\"\""
scalar DDoSNetwork.server.eth[0].queue queueLength:last 0
attr autoWarmupFilter false
attr interpolationmode sample-hold
attr recordingmode last
attr source "warmup(atomic(constant0(packetPushEnded) + count(packetPushStarted) - count(packetPulled) - count(packetRemoved) - count(packetDropped)))"
attr title "queue length, last"
attr unit pk
scalar DDoSNetwork.server.eth[0].queue queueLength:max 0
attr autoWarmupFilter false
attr interpolationmode sample-hold
attr recordingmode max
attr source "warmup(atomic(constant0(packetPushEnded) + count(packetPushStarted) - count(packetPulled) - count(packetRemoved) - count(packetDropped)))"
attr title "queue length, max"
attr unit pk
scalar DDoSNetwork.server.eth[0].queue queueLength:timeavg nan
attr autoWarmupFilter false
attr interpolationmode sample-hold
attr recordingmode timeavg
attr source "warmup(atomic(constant0(packetPushEnded) + count(packetPushStarted) - count(packetPulled) - count(packetRemoved) - count(packetDropped)))"
attr title "queue length, timeavg"
attr unit pk
scalar DDoSNetwork.server.eth[0].queue queueBitLength:last 0
attr autoWarmupFilter false
attr interpolationmode sample-hold
attr recordingmode last
attr source "warmup(atomic(constant0(packetPushEnded) + sum(packetLength(packetPushStarted)) - sum(packetLength(packetPulled)) - sum(packetLength(packetRemoved)) - sum(packetLength(packetDropped))))"
attr title "queue bit length, last"
attr unit b
scalar DDoSNetwork.server.eth[0].queue queueBitLength:max 0
attr autoWarmupFilter false
attr interpolationmode sample-hold
attr recordingmode max
attr source "warmup(atomic(constant0(packetPushEnded) + sum(packetLength(packetPushStarted)) - sum(packetLength(packetPulled)) - sum(packetLength(packetRemoved)) - sum(packetLength(packetDropped))))"
attr title "queue bit length, max"
attr unit b
scalar DDoSNetwork.server.eth[0].queue queueBitLength:timeavg nan
attr autoWarmupFilter false
attr interpolationmode sample-hold
attr recordingmode timeavg
attr source "warmup(atomic(constant0(packetPushEnded) + sum(packetLength(packetPushStarted)) - sum(packetLength(packetPulled)) - sum(packetLength(packetRemoved)) - sum(packetLength(packetDropped))))"
attr title "queue bit length, timeavg"
attr unit b
statistic DDoSNetwork.server.eth[0].queue queueingTime:histogram
field count 0
field mean nan
field stddev nan
field min nan
field max nan
field sum 0
field sqrsum 0
attr interpolationmode none
attr recordingmode histogram
attr source queueingTime(packetPulled)
attr title "queueing times"
attr unit s
bin	-inf	0
bin	0	0
bin	1	0
scalar DDoSNetwork.server.eth[0].queue outgoingPackets:count 0
attr recordingmode count
attr source packetPulled
attr title "outgoing packets, count"
attr unit pk
scalar DDoSNetwork.server.eth[0].queue outgoingPacketLengths:sum 0
attr interpolationmode none
attr recordingmode sum
attr source packetLength(packetPulled)
attr title "outgoing packet lengths, sum"
attr unit b
statistic DDoSNetwork.server.eth[0].queue outgoingPacketLengths:histogram
field count 0
field mean nan
field stddev nan
field min nan
field max nan
field sum 0
field sqrsum 0
attr interpolationmode none
attr recordingmode histogram
attr source packetLength(packetPulled)
attr title "outgoing packet lengths"
attr unit b
bin	-inf	0
bin	0	0
bin	1	0
statistic DDoSNetwork.server.eth[0].queue flowQueueingTime:histogram
field count 0
field mean nan
field stddev nan
field min nan
field max nan
field sum 0
field sqrsum 0
attr interpolationmode none
attr recordingmode histogram
attr source queueingTime(demuxFlow(packetPulled))
attr title "flow queueing times"
attr unit s
bin	-inf	0
bin	0	0
bin	1	0
scalar DDoSNetwork.server.eth[0].queue incomingPackets:count 0
attr recordingmode count
attr source packetPushStarted
attr title "incoming packets, count"
attr unit pk
scalar DDoSNetwork.server.eth[0].queue incomingPacketLengths:sum 0
attr interpolationmode none
attr recordingmode sum
attr source packetLength(packetPushStarted)
attr title "incoming packet lengths, sum"
attr unit b
statistic DDoSNetwork.server.eth[0].queue incomingPacketLengths:histogram
field count 0
field mean nan
field stddev nan
field min nan
field max nan
field sum 0
field sqrsum 0
attr interpolationmode none
attr recordingmode histogram
attr source packetLength(packetPushStarted)
attr title "incoming packet lengths"
attr unit b
bin	-inf	0
bin	0	0
bin	1	0
scalar DDoSNetwork.server.eth[0].queue droppedPacketsQueueOverflow:count 0
attr interpolationmode none
attr recordingmode count
attr source packetDropReasonIsQueueOverflow(packetDropped)
attr title "dropped packets: queue overflow, count"
attr unit pk
scalar DDoSNetwork.server.eth[0].queue droppedPacketLengthsQueueOverflow:sum 0
attr interpolationmode none
attr recordingmode sum
attr source packetLength(packetDropReasonIsQueueOverflow(packetDropped))
attr title "dropped packet lengths: queue overflow, sum"
attr unit b
par DDoSNetwork.server.eth[0].mac typename "\"inet.linklayer.ethernet.basic.EthernetMac\""
par DDoSNetwork.server.eth[0].mac interfaceTableModule "\"DDoSNetwork.server.interfaceTable\""
par DDoSNetwork.server.eth[0].mac displayStringTextFormat "\"rate: %b\\nsent: %s, rcvd: %r\\nqueue: %q, drop: %d\""
par DDoSNetwork.server.eth[0].mac sendRawBytes false
par DDoSNetwork.server.eth[0].mac promiscuous false
par DDoSNetwork.server.eth[0].mac duplexMode true
par DDoSNetwork.server.eth[0].mac mtu 1500B
attr unit B
par DDoSNetwork.server.eth[0].mac fcsMode "\"declared\""
attr enum declared,computed
par DDoSNetwork.server.eth[0].mac stopOperationExtraTime -1s
attr unit s
par DDoSNetwork.server.eth[0].mac stopOperationTimeout 2s
attr unit s
scalar DDoSNetwork.server.eth[0].mac "simulated time" 0
scalar DDoSNetwork.server.eth[0].mac full-duplex 1
scalar DDoSNetwork.server.eth[0].mac "rx channel idle (%)" nan
scalar DDoSNetwork.server.eth[0].mac "rx channel utilization (%)" nan
scalar DDoSNetwork.server.eth[0].mac txPk:count 0
attr interpolationmode none
attr recordingmode count
attr source packetSentToLower
attr title "packets transmitted, count"
scalar DDoSNetwork.server.eth[0].mac txPk:sum(packetBytes) 0
attr interpolationmode none
attr recordingmode sum(packetBytes)
attr source packetSentToLower
attr title "packets transmitted, sum(packetBytes)"
scalar DDoSNetwork.server.eth[0].mac packetReceivedFromUpper:count 0
attr interpolationmode none
attr recordingmode count
attr source packetReceivedFromUpper
attr title "packet bytes from higher layer, count"
scalar DDoSNetwork.server.eth[0].mac packetReceivedFromUpper:sum(packetBytes) 0
attr interpolationmode none
attr recordingmode sum(packetBytes)
attr source packetReceivedFromUpper
attr title "packet bytes from higher layer, sum(packetBytes)"
scalar DDoSNetwork.server.eth[0].mac passedUpPk:count 0
attr interpolationmode none
attr recordingmode count
attr source packetSentToUpper
attr title "packets passed to higher layer, count"
scalar DDoSNetwork.server.eth[0].mac passedUpPk:sum(packetBytes) 0
attr interpolationmode none
attr recordingmode sum(packetBytes)
attr source packetSentToUpper
attr title "packets passed to higher layer, sum(packetBytes)"
scalar DDoSNetwork.server.eth[0].mac packetDropIncorrectlyReceived:count 0
attr interpolationmode none
attr recordingmode count
attr source packetDropReasonIsIncorrectlyReceived(packetDropped)
attr title "packet drop: incorrectly received, count"
scalar DDoSNetwork.server.eth[0].mac packetDropIncorrectlyReceived:sum(packetBytes) 0
attr interpolationmode none
attr recordingmode sum(packetBytes)
attr source packetDropReasonIsIncorrectlyReceived(packetDropped)
attr title "packet drop: incorrectly received, sum(packetBytes)"
scalar DDoSNetwork.server.eth[0].mac packetDropInterfaceDown:count 0
attr interpolationmode none
attr recordingmode count
attr source packetDropReasonIsInterfaceDown(packetDropped)
attr title "packet drop: interface down, count"
scalar DDoSNetwork.server.eth[0].mac packetDropInterfaceDown:sum(packetBytes) 0
attr interpolationmode none
attr recordingmode sum(packetBytes)
attr source packetDropReasonIsInterfaceDown(packetDropped)
attr title "packet drop: interface down, sum(packetBytes)"
scalar DDoSNetwork.server.eth[0].mac packetDropNotAddressedToUs:count 0
attr interpolationmode none
attr recordingmode count
attr source packetDropReasonIsNotAddressedToUs(packetDropped)
attr title "packet drop: not addressed to us, count"
scalar DDoSNetwork.server.eth[0].mac packetDropNotAddressedToUs:sum(packetBytes) 0
attr interpolationmode none
attr recordingmode sum(packetBytes)
attr source packetDropReasonIsNotAddressedToUs(packetDropped)
attr title "packet drop: not addressed to us, sum(packetBytes)"
scalar DDoSNetwork.server.eth[0].mac rxPausePkUnits:count 0
attr interpolationmode none
attr recordingmode count
attr title "pause units received, count"
scalar DDoSNetwork.server.eth[0].mac rxPausePkUnits:sum 0
attr interpolationmode none
attr recordingmode sum
attr title "pause units received, sum"
scalar DDoSNetwork.server.eth[0].mac txPausePkUnits:count 0
attr interpolationmode none
attr recordingmode count
attr title "pause units sent, count"
scalar DDoSNetwork.server.eth[0].mac txPausePkUnits:sum 0
attr interpolationmode none
attr recordingmode sum
attr title "pause units sent, sum"
scalar DDoSNetwork.server.eth[0].mac rxPkOk:count 0
attr interpolationmode none
attr recordingmode count
attr source rxPkOk
attr title "packets received OK, count"
scalar DDoSNetwork.server.eth[0].mac rxPkOk:sum(packetBytes) 0
attr interpolationmode none
attr recordingmode sum(packetBytes)
attr source rxPkOk
attr title "packets received OK, sum(packetBytes)"
par DDoSNetwork.server.eth[0] typename "\"inet.linklayer.ethernet.EthernetInterface\""
par DDoSNetwork.server.eth[0] displayStringTextFormat "\"%a (%i)\\n%m\""
par DDoSNetwork.server.eth[0] recordPcap false
par DDoSNetwork.server.eth[0] numPcapRecorders 0
par DDoSNetwork.server.eth[0] interfaceTableModule "\"DDoSNetwork.server.interfaceTable\""
par DDoSNetwork.server.eth[0] protocol "\"ethernetmac\""
par DDoSNetwork.server.eth[0] address "\"0A-AA-00-00-00-01\""
attr mutable ""
par DDoSNetwork.server.eth[0] duplexMode true
par DDoSNetwork.server.eth[0] csmacdSupport false
par DDoSNetwork.server.eth[0] bitrate 0bps
attr unit bps
par DDoSNetwork.server.eth[0] fcsMode "\"declared\""
attr enum declared,computed
scalar DDoSNetwork.server.eth[0] packetDropInterfaceDown:count 0
attr interpolationmode none
attr recordingmode count
attr source packetDropReasonIsInterfaceDown(packetDropped)
attr title "packet drops: interface down, count"
scalar DDoSNetwork.server.eth[0] packetDropInterfaceDown:sum(packetBytes) 0
attr interpolationmode none
attr recordingmode sum(packetBytes)
attr source packetDropReasonIsInterfaceDown(packetDropped)
attr title "packet drops: interface down, sum(packetBytes)"
scalar DDoSNetwork.server.eth[0] packetDropNoCarrier:count 0
attr interpolationmode none
attr recordingmode count
attr source packetDropReasonIsNoCarrier(packetDropped)
attr title "packet drops: no carrier, count"
scalar DDoSNetwork.server.eth[0] packetDropNoCarrier:sum(packetBytes) 0
attr interpolationmode none
attr recordingmode sum(packetBytes)
attr source packetDropReasonIsNoCarrier(packetDropped)
attr title "packet drops: no carrier, sum(packetBytes)"
par DDoSNetwork.server.eth[1].mac.phys$o.channel typename "\"ned.IdealChannel\""
par DDoSNetwork.server.eth[1].phys$i.channel typename "\"ned.IdealChannel\""
par DDoSNetwork.server.eth[1].upperLayerIn.channel typename "\"ned.IdealChannel\""
par DDoSNetwork.server.eth[1].mac.upperLayerOut.channel typename "\"ned.IdealChannel\""
par DDoSNetwork.server.eth[1].queue typename "\"inet.linklayer.ethernet.common.EthernetQueue\""
par DDoSNetwork.server.eth[1].queue displayStringTextFormat "\"contains %p pk (%l) pushed %u\\npulled %o removed %r dropped %d\""
par DDoSNetwork.server.eth[1].queue packetCapacity 1000
par DDoSNetwork.server.eth[1].queue dataCapacity -1b
attr unit b
par DDoSNetwork.server.eth[1].queue dropperClass "\"inet::queueing::PacketAtCollectionEndDropper\""
par DDoSNetwork.server.eth[1].queue comparatorClass "\"inet::EthernetFrameTypeComparator\""
par DDoSNetwork.server.eth[1].queue bufferModule "\"\""
scalar DDoSNetwork.server.eth[1].queue queueLength:last 0
attr autoWarmupFilter false
attr interpolationmode sample-hold
attr recordingmode last
attr source "warmup(atomic(constant0(packetPushEnded) + count(packetPushStarted) - count(packetPulled) - count(packetRemoved) - count(packetDropped)))"
attr title "queue length, last"
attr unit pk
scalar DDoSNetwork.server.eth[1].queue queueLength:max 0
attr autoWarmupFilter false
attr interpolationmode sample-hold
attr recordingmode max
attr source "warmup(atomic(constant0(packetPushEnded) + count(packetPushStarted) - count(packetPulled) - count(packetRemoved) - count(packetDropped)))"
attr title "queue length, max"
attr unit pk
scalar DDoSNetwork.server.eth[1].queue queueLength:timeavg nan
attr autoWarmupFilter false
attr interpolationmode sample-hold
attr recordingmode timeavg
attr source "warmup(atomic(constant0(packetPushEnded) + count(packetPushStarted) - count(packetPulled) - count(packetRemoved) - count(packetDropped)))"
attr title "queue length, timeavg"
attr unit pk
scalar DDoSNetwork.server.eth[1].queue queueBitLength:last 0
attr autoWarmupFilter false
attr interpolationmode sample-hold
attr recordingmode last
attr source "warmup(atomic(constant0(packetPushEnded) + sum(packetLength(packetPushStarted)) - sum(packetLength(packetPulled)) - sum(packetLength(packetRemoved)) - sum(packetLength(packetDropped))))"
attr title "queue bit length, last"
attr unit b
scalar DDoSNetwork.server.eth[1].queue queueBitLength:max 0
attr autoWarmupFilter false
attr interpolationmode sample-hold
attr recordingmode max
attr source "warmup(atomic(constant0(packetPushEnded) + sum(packetLength(packetPushStarted)) - sum(packetLength(packetPulled)) - sum(packetLength(packetRemoved)) - sum(packetLength(packetDropped))))"
attr title "queue bit length, max"
attr unit b
scalar DDoSNetwork.server.eth[1].queue queueBitLength:timeavg nan
attr autoWarmupFilter false
attr interpolationmode sample-hold
attr recordingmode timeavg
attr source "warmup(atomic(constant0(packetPushEnded) + sum(packetLength(packetPushStarted)) - sum(packetLength(packetPulled)) - sum(packetLength(packetRemoved)) - sum(packetLength(packetDropped))))"
attr title "queue bit length, timeavg"
attr unit b
statistic DDoSNetwork.server.eth[1].queue queueingTime:histogram
field count 0
field mean nan
field stddev nan
field min nan
field max nan
field sum 0
field sqrsum 0
attr interpolationmode none
attr recordingmode histogram
attr source queueingTime(packetPulled)
attr title "queueing times"
attr unit s
bin	-inf	0
bin	0	0
bin	1	0
scalar DDoSNetwork.server.eth[1].queue outgoingPackets:count 0
attr recordingmode count
attr source packetPulled
attr title "outgoing packets, count"
attr unit pk
scalar DDoSNetwork.server.eth[1].queue outgoingPacketLengths:sum 0
attr interpolationmode none
attr recordingmode sum
attr source packetLength(packetPulled)
attr title "outgoing packet lengths, sum"
attr unit b
statistic DDoSNetwork.server.eth[1].queue outgoingPacketLengths:histogram
field count 0
field mean nan
field stddev nan
field min nan
field max nan
field sum 0
field sqrsum 0
attr interpolationmode none
attr recordingmode histogram
attr source packetLength(packetPulled)
attr title "outgoing packet lengths"
attr unit b
bin	-inf	0
bin	0	0
bin	1	0
statistic DDoSNetwork.server.eth[1].queue flowQueueingTime:histogram
field count 0
field mean nan
field stddev nan
field min nan
field max nan
field sum 0
field sqrsum 0
attr interpolationmode none
attr recordingmode histogram
attr source queueingTime(demuxFlow(packetPulled))
attr title "flow queueing times"
attr unit s
bin	-inf	0
bin	0	0
bin	1	0
scalar DDoSNetwork.server.eth[1].queue incomingPackets:count 0
attr recordingmode count
attr source packetPushStarted
attr title "incoming packets, count"
attr unit pk
scalar DDoSNetwork.server.eth[1].queue incomingPacketLengths:sum 0
attr interpolationmode none
attr recordingmode sum
attr source packetLength(packetPushStarted)
attr title "incoming packet lengths, sum"
attr unit b
statistic DDoSNetwork.server.eth[1].queue incomingPacketLengths:histogram
field count 0
field mean nan
field stddev nan
field min nan
field max nan
field sum 0
field sqrsum 0
attr interpolationmode none
attr recordingmode histogram
attr source packetLength(packetPushStarted)
attr title "incoming packet lengths"
attr unit b
bin	-inf	0
bin	0	0
bin	1	0
scalar DDoSNetwork.server.eth[1].queue droppedPacketsQueueOverflow:count 0
attr interpolationmode none
attr recordingmode count
attr source packetDropReasonIsQueueOverflow(packetDropped)
attr title "dropped packets: queue overflow, count"
attr unit pk
scalar DDoSNetwork.server.eth[1].queue droppedPacketLengthsQueueOverflow:sum 0
attr interpolationmode none
attr recordingmode sum
attr source packetLength(packetDropReasonIsQueueOverflow(packetDropped))
attr title "dropped packet lengths: queue overflow, sum"
attr unit b
par DDoSNetwork.server.eth[1].mac typename "\"inet.linklayer.ethernet.basic.EthernetMac\""
par DDoSNetwork.server.eth[1].mac interfaceTableModule "\"DDoSNetwork.server.interfaceTable\""
par DDoSNetwork.server.eth[1].mac displayStringTextFormat "\"rate: %b\\nsent: %s, rcvd: %r\\nqueue: %q, drop: %d\""
par DDoSNetwork.server.eth[1].mac sendRawBytes false
par DDoSNetwork.server.eth[1].mac promiscuous false
par DDoSNetwork.server.eth[1].mac duplexMode true
par DDoSNetwork.server.eth[1].mac mtu 1500B
attr unit B
par DDoSNetwork.server.eth[1].mac fcsMode "\"declared\""
attr enum declared,computed
par DDoSNetwork.server.eth[1].mac stopOperationExtraTime -1s
attr unit s
par DDoSNetwork.server.eth[1].mac stopOperationTimeout 2s
attr unit s
scalar DDoSNetwork.server.eth[1].mac "simulated time" 0
scalar DDoSNetwork.server.eth[1].mac full-duplex 1
scalar DDoSNetwork.server.eth[1].mac "rx channel idle (%)" nan
scalar DDoSNetwork.server.eth[1].mac "rx channel utilization (%)" nan
scalar DDoSNetwork.server.eth[1].mac txPk:count 0
attr interpolationmode none
attr recordingmode count
attr source packetSentToLower
attr title "packets transmitted, count"
scalar DDoSNetwork.server.eth[1].mac txPk:sum(packetBytes) 0
attr interpolationmode none
attr recordingmode sum(packetBytes)
attr source packetSentToLower
attr title "packets transmitted, sum(packetBytes)"
scalar DDoSNetwork.server.eth[1].mac packetReceivedFromUpper:count 0
attr interpolationmode none
attr recordingmode count
attr source packetReceivedFromUpper
attr title "packet bytes from higher layer, count"
scalar DDoSNetwork.server.eth[1].mac packetReceivedFromUpper:sum(packetBytes) 0
attr interpolationmode none
attr recordingmode sum(packetBytes)
attr source packetReceivedFromUpper
attr title "packet bytes from higher layer, sum(packetBytes)"
scalar DDoSNetwork.server.eth[1].mac passedUpPk:count 0
attr interpolationmode none
attr recordingmode count
attr source packetSentToUpper
attr title "packets passed to higher layer, count"
scalar DDoSNetwork.server.eth[1].mac passedUpPk:sum(packetBytes) 0
attr interpolationmode none
attr recordingmode sum(packetBytes)
attr source packetSentToUpper
attr title "packets passed to higher layer, sum(packetBytes)"
scalar DDoSNetwork.server.eth[1].mac packetDropIncorrectlyReceived:count 0
attr interpolationmode none
attr recordingmode count
attr source packetDropReasonIsIncorrectlyReceived(packetDropped)
attr title "packet drop: incorrectly received, count"
scalar DDoSNetwork.server.eth[1].mac packetDropIncorrectlyReceived:sum(packetBytes) 0
attr interpolationmode none
attr recordingmode sum(packetBytes)
attr source packetDropReasonIsIncorrectlyReceived(packetDropped)
attr title "packet drop: incorrectly received, sum(packetBytes)"
scalar DDoSNetwork.server.eth[1].mac packetDropInterfaceDown:count 0
attr interpolationmode none
attr recordingmode count
attr source packetDropReasonIsInterfaceDown(packetDropped)
attr title "packet drop: interface down, count"
scalar DDoSNetwork.server.eth[1].mac packetDropInterfaceDown:sum(packetBytes) 0
attr interpolationmode none
attr recordingmode sum(packetBytes)
attr source packetDropReasonIsInterfaceDown(packetDropped)
attr title "packet drop: interface down, sum(packetBytes)"
scalar DDoSNetwork.server.eth[1].mac packetDropNotAddressedToUs:count 0
attr interpolationmode none
attr recordingmode count
attr source packetDropReasonIsNotAddressedToUs(packetDropped)
attr title "packet drop: not addressed to us, count"
scalar DDoSNetwork.server.eth[1].mac packetDropNotAddressedToUs:sum(packetBytes) 0
attr interpolationmode none
attr recordingmode sum(packetBytes)
attr source packetDropReasonIsNotAddressedToUs(packetDropped)
attr title "packet drop: not addressed to us, sum(packetBytes)"
scalar DDoSNetwork.server.eth[1].mac rxPausePkUnits:count 0
attr interpolationmode none
attr recordingmode count
attr title "pause units received, count"
scalar DDoSNetwork.server.eth[1].mac rxPausePkUnits:sum 0
attr interpolationmode none
attr recordingmode sum
attr title "pause units received, sum"
scalar DDoSNetwork.server.eth[1].mac txPausePkUnits:count 0
attr interpolationmode none
attr recordingmode count
attr title "pause units sent, count"
scalar DDoSNetwork.server.eth[1].mac txPausePkUnits:sum 0
attr interpolationmode none
attr recordingmode sum
attr title "pause units sent, sum"
scalar DDoSNetwork.server.eth[1].mac rxPkOk:count 0
attr interpolationmode none
attr recordingmode count
attr source rxPkOk
attr title "packets received OK, count"
scalar DDoSNetwork.server.eth[1].mac rxPkOk:sum(packetBytes) 0
attr interpolationmode none
attr recordingmode sum(packetBytes)
attr source rxPkOk
attr title "packets received OK, sum(packetBytes)"
par DDoSNetwork.server.eth[1] typename "\"inet.linklayer.ethernet.EthernetInterface\""
par DDoSNetwork.server.eth[1] displayStringTextFormat "\"%a (%i)\\n%m\""
par DDoSNetwork.server.eth[1] recordPcap false
par DDoSNetwork.server.eth[1] numPcapRecorders 0
par DDoSNetwork.server.eth[1] interfaceTableModule "\"DDoSNetwork.server.interfaceTable\""
par DDoSNetwork.server.eth[1] protocol "\"ethernetmac\""
par DDoSNetwork.server.eth[1] address "\"0A-AA-00-00-00-02\""
attr mutable ""
par DDoSNetwork.server.eth[1] duplexMode true
par DDoSNetwork.server.eth[1] csmacdSupport false
par DDoSNetwork.server.eth[1] bitrate 0bps
attr unit bps
par DDoSNetwork.server.eth[1] fcsMode "\"declared\""
attr enum declared,computed
scalar DDoSNetwork.server.eth[1] packetDropInterfaceDown:count 0
attr interpolationmode none
attr recordingmode count
attr source packetDropReasonIsInterfaceDown(packetDropped)
attr title "packet drops: interface down, count"
scalar DDoSNetwork.server.eth[1] packetDropInterfaceDown:sum(packetBytes) 0
attr interpolationmode none
attr recordingmode sum(packetBytes)
attr source packetDropReasonIsInterfaceDown(packetDropped)
attr title "packet drops: interface down, sum(packetBytes)"
scalar DDoSNetwork.server.eth[1] packetDropNoCarrier:count 0
attr interpolationmode none
attr recordingmode count
attr source packetDropReasonIsNoCarrier(packetDropped)
attr title "packet drops: no carrier, count"
scalar DDoSNetwork.server.eth[1] packetDropNoCarrier:sum(packetBytes) 0
attr interpolationmode none
attr recordingmode sum(packetBytes)
attr source packetDropReasonIsNoCarrier(packetDropped)
attr title "packet drops: no carrier, sum(packetBytes)"
par DDoSNetwork.server.eth[2].mac.phys$o.channel typename "\"ned.IdealChannel\""
par DDoSNetwork.server.eth[2].phys$i.channel typename "\"ned.IdealChannel\""
par DDoSNetwork.server.eth[2].upperLayerIn.channel typename "\"ned.IdealChannel\""
par DDoSNetwork.server.eth[2].mac.upperLayerOut.channel typename "\"ned.IdealChannel\""
par DDoSNetwork.server.eth[2].queue typename "\"inet.linklayer.ethernet.common.EthernetQueue\""
par DDoSNetwork.server.eth[2].queue displayStringTextFormat "\"contains %p pk (%l) pushed %u\\npulled %o removed %r dropped %d\""
par DDoSNetwork.server.eth[2].queue packetCapacity 1000
par DDoSNetwork.server.eth[2].queue dataCapacity -1b
attr unit b
par DDoSNetwork.server.eth[2].queue dropperClass "\"inet::queueing::PacketAtCollectionEndDropper\""
par DDoSNetwork.server.eth[2].queue comparatorClass "\"inet::EthernetFrameTypeComparator\""
par DDoSNetwork.server.eth[2].queue bufferModule "\"\""
scalar DDoSNetwork.server.eth[2].queue queueLength:last 0
attr autoWarmupFilter false
attr interpolationmode sample-hold
attr recordingmode last
attr source "warmup(atomic(constant0(packetPushEnded) + count(packetPushStarted) - count(packetPulled) - count(packetRemoved) - count(packetDropped)))"
attr title "queue length, last"
attr unit pk
scalar DDoSNetwork.server.eth[2].queue queueLength:max 0
attr autoWarmupFilter false
attr interpolationmode sample-hold
attr recordingmode max
attr source "warmup(atomic(constant0(packetPushEnded) + count(packetPushStarted) - count(packetPulled) - count(packetRemoved) - count(packetDropped)))"
attr title "queue length, max"
attr unit pk
scalar DDoSNetwork.server.eth[2].queue queueLength:timeavg nan
attr autoWarmupFilter false
attr interpolationmode sample-hold
attr recordingmode timeavg
attr source "warmup(atomic(constant0(packetPushEnded) + count(packetPushStarted) - count(packetPulled) - count(packetRemoved) - count(packetDropped)))"
attr title "queue length, timeavg"
attr unit pk
scalar DDoSNetwork.server.eth[2].queue queueBitLength:last 0
attr autoWarmupFilter false
attr interpolationmode sample-hold
attr recordingmode last
attr source "warmup(atomic(constant0(packetPushEnded) + sum(packetLength(packetPushStarted)) - sum(packetLength(packetPulled)) - sum(packetLength(packetRemoved)) - sum(packetLength(packetDropped))))"
attr title "queue bit length, last"
attr unit b
scalar DDoSNetwork.server.eth[2].queue queueBitLength:max 0
attr autoWarmupFilter false
attr interpolationmode sample-hold
attr recordingmode max
attr source "warmup(atomic(constant0(packetPushEnded) + sum(packetLength(packetPushStarted)) - sum(packetLength(packetPulled)) - sum(packetLength(packetRemoved)) - sum(packetLength(packetDropped))))"
attr title "queue bit length, max"
attr unit b
scalar DDoSNetwork.server.eth[2].queue queueBitLength:timeavg nan
attr autoWarmupFilter false
attr interpolationmode sample-hold
attr recordingmode timeavg
attr source "warmup(atomic(constant0(packetPushEnded) + sum(packetLength(packetPushStarted)) - sum(packetLength(packetPulled)) - sum(packetLength(packetRemoved)) - sum(packetLength(packetDropped))))"
attr title "queue bit length, timeavg"
attr unit b
statistic DDoSNetwork.server.eth[2].queue queueingTime:histogram
field count 0
field mean nan
field stddev nan
field min nan
field max nan
field sum 0
field sqrsum 0
attr interpolationmode none
attr recordingmode histogram
attr source queueingTime(packetPulled)
attr title "queueing times"
attr unit s
bin	-inf	0
bin	0	0
bin	1	0
scalar DDoSNetwork.server.eth[2].queue outgoingPackets:count 0
attr recordingmode count
attr source packetPulled
attr title "outgoing packets, count"
attr unit pk
scalar DDoSNetwork.server.eth[2].queue outgoingPacketLengths:sum 0
attr interpolationmode none
attr recordingmode sum
attr source packetLength(packetPulled)
attr title "outgoing packet lengths, sum"
attr unit b
statistic DDoSNetwork.server.eth[2].queue outgoingPacketLengths:histogram
field count 0
field mean nan
field stddev nan
field min nan
field max nan
field sum 0
field sqrsum 0
attr interpolationmode none
attr recordingmode histogram
attr source packetLength(packetPulled)
attr title "outgoing packet lengths"
attr unit b
bin	-inf	0
bin	0	0
bin	1	0
statistic DDoSNetwork.server.eth[2].queue flowQueueingTime:histogram
field count 0
field mean nan
field stddev nan
field min nan
field max nan
field sum 0
field sqrsum 0
attr interpolationmode none
attr recordingmode histogram
attr source queueingTime(demuxFlow(packetPulled))
attr title "flow queueing times"
attr unit s
bin	-inf	0
bin	0	0
bin	1	0
scalar DDoSNetwork.server.eth[2].queue incomingPackets:count 0
attr recordingmode count
attr source packetPushStarted
attr title "incoming packets, count"
attr unit pk
scalar DDoSNetwork.server.eth[2].queue incomingPacketLengths:sum 0
attr interpolationmode none
attr recordingmode sum
attr source packetLength(packetPushStarted)
attr title "incoming packet lengths, sum"
attr unit b
statistic DDoSNetwork.server.eth[2].queue incomingPacketLengths:histogram
field count 0
field mean nan
field stddev nan
field min nan
field max nan
field sum 0
field sqrsum 0
attr interpolationmode none
attr recordingmode histogram
attr source packetLength(packetPushStarted)
attr title "incoming packet lengths"
attr unit b
bin	-inf	0
bin	0	0
bin	1	0
scalar DDoSNetwork.server.eth[2].queue droppedPacketsQueueOverflow:count 0
attr interpolationmode none
attr recordingmode count
attr source packetDropReasonIsQueueOverflow(packetDropped)
attr title "dropped packets: queue overflow, count"
attr unit pk
scalar DDoSNetwork.server.eth[2].queue droppedPacketLengthsQueueOverflow:sum 0
attr interpolationmode none
attr recordingmode sum
attr source packetLength(packetDropReasonIsQueueOverflow(packetDropped))
attr title "dropped packet lengths: queue overflow, sum"
attr unit b
par DDoSNetwork.server.eth[2].mac typename "\"inet.linklayer.ethernet.basic.EthernetMac\""
par DDoSNetwork.server.eth[2].mac interfaceTableModule "\"DDoSNetwork.server.interfaceTable\""
par DDoSNetwork.server.eth[2].mac displayStringTextFormat "\"rate: %b\\nsent: %s, rcvd: %r\\nqueue: %q, drop: %d\""
par DDoSNetwork.server.eth[2].mac sendRawBytes false
par DDoSNetwork.server.eth[2].mac promiscuous false
par DDoSNetwork.server.eth[2].mac duplexMode true
par DDoSNetwork.server.eth[2].mac mtu 1500B
attr unit B
par DDoSNetwork.server.eth[2].mac fcsMode "\"declared\""
attr enum declared,computed
par DDoSNetwork.server.eth[2].mac stopOperationExtraTime -1s
attr unit s
par DDoSNetwork.server.eth[2].mac stopOperationTimeout 2s
attr unit s
scalar DDoSNetwork.server.eth[2].mac "simulated time" 0
scalar DDoSNetwork.server.eth[2].mac full-duplex 1
scalar DDoSNetwork.server.eth[2].mac "rx channel idle (%)" nan
scalar DDoSNetwork.server.eth[2].mac "rx channel utilization (%)" nan
scalar DDoSNetwork.server.eth[2].mac txPk:count 0
attr interpolationmode none
attr recordingmode count
attr source packetSentToLower
attr title "packets transmitted, count"
scalar DDoSNetwork.server.eth[2].mac txPk:sum(packetBytes) 0
attr interpolationmode none
attr recordingmode sum(packetBytes)
attr source packetSentToLower
attr title "packets transmitted, sum(packetBytes)"
scalar DDoSNetwork.server.eth[2].mac packetReceivedFromUpper:count 0
attr interpolationmode none
attr recordingmode count
attr source packetReceivedFromUpper
attr title "packet bytes from higher layer, count"
scalar DDoSNetwork.server.eth[2].mac packetReceivedFromUpper:sum(packetBytes) 0
attr interpolationmode none
attr recordingmode sum(packetBytes)
attr source packetReceivedFromUpper
attr title "packet bytes from higher layer, sum(packetBytes)"
scalar DDoSNetwork.server.eth[2].mac passedUpPk:count 0
attr interpolationmode none
attr recordingmode count
attr source packetSentToUpper
attr title "packets passed to higher layer, count"
scalar DDoSNetwork.server.eth[2].mac passedUpPk:sum(packetBytes) 0
attr interpolationmode none
attr recordingmode sum(packetBytes)
attr source packetSentToUpper
attr title "packets passed to higher layer, sum(packetBytes)"
scalar DDoSNetwork.server.eth[2].mac packetDropIncorrectlyReceived:count 0
attr interpolationmode none
attr recordingmode count
attr source packetDropReasonIsIncorrectlyReceived(packetDropped)
attr title "packet drop: incorrectly received, count"
scalar DDoSNetwork.server.eth[2].mac packetDropIncorrectlyReceived:sum(packetBytes) 0
attr interpolationmode none
attr recordingmode sum(packetBytes)
attr source packetDropReasonIsIncorrectlyReceived(packetDropped)
attr title "packet drop: incorrectly received, sum(packetBytes)"
scalar DDoSNetwork.server.eth[2].mac packetDropInterfaceDown:count 0
attr interpolationmode none
attr recordingmode count
attr source packetDropReasonIsInterfaceDown(packetDropped)
attr title "packet drop: interface down, count"
scalar DDoSNetwork.server.eth[2].mac packetDropInterfaceDown:sum(packetBytes) 0
attr interpolationmode none
attr recordingmode sum(packetBytes)
attr source packetDropReasonIsInterfaceDown(packetDropped)
attr title "packet drop: interface down, sum(packetBytes)"
scalar DDoSNetwork.server.eth[2].mac packetDropNotAddressedToUs:count 0
attr interpolationmode none
attr recordingmode count
attr source packetDropReasonIsNotAddressedToUs(packetDropped)
attr title "packet drop: not addressed to us, count"
scalar DDoSNetwork.server.eth[2].mac packetDropNotAddressedToUs:sum(packetBytes) 0
attr interpolationmode none
attr recordingmode sum(packetBytes)
attr source packetDropReasonIsNotAddressedToUs(packetDropped)
attr title "packet drop: not addressed to us, sum(packetBytes)"
scalar DDoSNetwork.server.eth[2].mac rxPausePkUnits:count 0
attr interpolationmode none
attr recordingmode count
attr title "pause units received, count"
scalar DDoSNetwork.server.eth[2].mac rxPausePkUnits:sum 0
attr interpolationmode none
attr recordingmode sum
attr title "pause units received, sum"
scalar DDoSNetwork.server.eth[2].mac txPausePkUnits:count 0
attr interpolationmode none
attr recordingmode count
attr title "pause units sent, count"
scalar DDoSNetwork.server.eth[2].mac txPausePkUnits:sum 0
attr interpolationmode none
attr recordingmode sum
attr title "pause units sent, sum"
scalar DDoSNetwork.server.eth[2].mac rxPkOk:count 0
attr interpolationmode none
attr recordingmode count
attr source rxPkOk
attr title "packets received OK, count"
scalar DDoSNetwork.server.eth[2].mac rxPkOk:sum(packetBytes) 0
attr interpolationmode none
attr recordingmode sum(packetBytes)
attr source rxPkOk
attr title "packets received OK, sum(packetBytes)"
par DDoSNetwork.server.eth[2] typename "\"inet.linklayer.ethernet.EthernetInterface\""
par DDoSNetwork.server.eth[2] displayStringTextFormat "\"%a (%i)\\n%m\""
par DDoSNetwork.server.eth[2] recordPcap false
par DDoSNetwork.server.eth[2] numPcapRecorders 0
par DDoSNetwork.server.eth[2] interfaceTableModule "\"DDoSNetwork.server.interfaceTable\""
par DDoSNetwork.server.eth[2] protocol "\"ethernetmac\""
par DDoSNetwork.server.eth[2] address "\"0A-AA-00-00-00-03\""
attr mutable ""
par DDoSNetwork.server.eth[2] duplexMode true
par DDoSNetwork.server.eth[2] csmacdSupport false
par DDoSNetwork.server.eth[2] bitrate 0bps
attr unit bps
par DDoSNetwork.server.eth[2] fcsMode "\"declared\""
attr enum declared,computed
scalar DDoSNetwork.server.eth[2] packetDropInterfaceDown:count 0
attr interpolationmode none
attr recordingmode count
attr source packetDropReasonIsInterfaceDown(packetDropped)
attr title "packet drops: interface down, count"
scalar DDoSNetwork.server.eth[2] packetDropInterfaceDown:sum(packetBytes) 0
attr interpolationmode none
attr recordingmode sum(packetBytes)
attr source packetDropReasonIsInterfaceDown(packetDropped)
attr title "packet drops: interface down, sum(packetBytes)"
scalar DDoSNetwork.server.eth[2] packetDropNoCarrier:count 0
attr interpolationmode none
attr recordingmode count
attr source packetDropReasonIsNoCarrier(packetDropped)
attr title "packet drops: no carrier, count"
scalar DDoSNetwork.server.eth[2] packetDropNoCarrier:sum(packetBytes) 0
attr interpolationmode none
attr recordingmode sum(packetBytes)
attr source packetDropReasonIsNoCarrier(packetDropped)
attr title "packet drops: no carrier, sum(packetBytes)"
par DDoSNetwork.server.eth[3].mac.phys$o.channel typename "\"ned.IdealChannel\""
par DDoSNetwork.server.eth[3].phys$i.channel typename "\"ned.IdealChannel\""
par DDoSNetwork.server.eth[3].upperLayerIn.channel typename "\"ned.IdealChannel\""
par DDoSNetwork.server.eth[3].mac.upperLayerOut.channel typename "\"ned.IdealChannel\""
par DDoSNetwork.server.eth[3].queue typename "\"inet.linklayer.ethernet.common.EthernetQueue\""
par DDoSNetwork.server.eth[3].queue displayStringTextFormat "\"contains %p pk (%l) pushed %u\\npulled %o removed %r dropped %d\""
par DDoSNetwork.server.eth[3].queue packetCapacity 1000
par DDoSNetwork.server.eth[3].queue dataCapacity -1b
attr unit b
par DDoSNetwork.server.eth[3].queue dropperClass "\"inet::queueing::PacketAtCollectionEndDropper\""
par DDoSNetwork.server.eth[3].queue comparatorClass "\"inet::EthernetFrameTypeComparator\""
par DDoSNetwork.server.eth[3].queue bufferModule "\"\""
scalar DDoSNetwork.server.eth[3].queue queueLength:last 0
attr autoWarmupFilter false
attr interpolationmode sample-hold
attr recordingmode last
attr source "warmup(atomic(constant0(packetPushEnded) + count(packetPushStarted) - count(packetPulled) - count(packetRemoved) - count(packetDropped)))"
attr title "queue length, last"
attr unit pk
scalar DDoSNetwork.server.eth[3].queue queueLength:max 0
attr autoWarmupFilter false
attr interpolationmode sample-hold
attr recordingmode max
attr source "warmup(atomic(constant0(packetPushEnded) + count(packetPushStarted) - count(packetPulled) - count(packetRemoved) - count(packetDropped)))"
attr title "queue length, max"
attr unit pk
scalar DDoSNetwork.server.eth[3].queue queueLength:timeavg nan
attr autoWarmupFilter false
attr interpolationmode sample-hold
attr recordingmode timeavg
attr source "warmup(atomic(constant0(packetPushEnded) + count(packetPushStarted) - count(packetPulled) - count(packetRemoved) - count(packetDropped)))"
attr title "queue length, timeavg"
attr unit pk
scalar DDoSNetwork.server.eth[3].queue queueBitLength:last 0
attr autoWarmupFilter false
attr interpolationmode sample-hold
attr recordingmode last
attr source "warmup(atomic(constant0(packetPushEnded) + sum(packetLength(packetPushStarted)) - sum(packetLength(packetPulled)) - sum(packetLength(packetRemoved)) - sum(packetLength(packetDropped))))"
attr title "queue bit length, last"
attr unit b
scalar DDoSNetwork.server.eth[3].queue queueBitLength:max 0
attr autoWarmupFilter false
attr interpolationmode sample-hold
attr recordingmode max
attr source "warmup(atomic(constant0(packetPushEnded) + sum(packetLength(packetPushStarted)) - sum(packetLength(packetPulled)) - sum(packetLength(packetRemoved)) - sum(packetLength(packetDropped))))"
attr title "queue bit length, max"
attr unit b
scalar DDoSNetwork.server.eth[3].queue queueBitLength:timeavg nan
attr autoWarmupFilter false
attr interpolationmode sample-hold
attr recordingmode timeavg
attr source "warmup(atomic(constant0(packetPushEnded) + sum(packetLength(packetPushStarted)) - sum(packetLength(packetPulled)) - sum(packetLength(packetRemoved)) - sum(packetLength(packetDropped))))"
attr title "queue bit length, timeavg"
attr unit b
statistic DDoSNetwork.server.eth[3].queue queueingTime:histogram
field count 0
field mean nan
field stddev nan
field min nan
field max nan
field sum 0
field sqrsum 0
attr interpolationmode none
attr recordingmode histogram
attr source queueingTime(packetPulled)
attr title "queueing times"
attr unit s
bin	-inf	0
bin	0	0
bin	1	0
scalar DDoSNetwork.server.eth[3].queue outgoingPackets:count 0
attr recordingmode count
attr source packetPulled
attr title "outgoing packets, count"
attr unit pk
scalar DDoSNetwork.server.eth[3].queue outgoingPacketLengths:sum 0
attr interpolationmode none
attr recordingmode sum
attr source packetLength(packetPulled)
attr title "outgoing packet lengths, sum"
attr unit b
statistic DDoSNetwork.server.eth[3].queue outgoingPacketLengths:histogram
field count 0
field mean nan
field stddev nan
field min nan
field max nan
field sum 0
field sqrsum 0
attr interpolationmode none
attr recordingmode histogram
attr source packetLength(packetPulled)
attr title "outgoing packet lengths"
attr unit b
bin	-inf	0
bin	0	0
bin	1	0
statistic DDoSNetwork.server.eth[3].queue flowQueueingTime:histogram
field count 0
field mean nan
field stddev nan
field min nan
field max nan
field sum 0
field sqrsum 0
attr interpolationmode none
attr recordingmode histogram
attr source queueingTime(demuxFlow(packetPulled))
attr title "flow queueing times"
attr unit s
bin	-inf	0
bin	0	0
bin	1	0
scalar DDoSNetwork.server.eth[3].queue incomingPackets:count 0
attr recordingmode count
attr source packetPushStarted
attr title "incoming packets, count"
attr unit pk
scalar DDoSNetwork.server.eth[3].queue incomingPacketLengths:sum 0
attr interpolationmode none
attr recordingmode sum
attr source packetLength(packetPushStarted)
attr title "incoming packet lengths, sum"
attr unit b
statistic DDoSNetwork.server.eth[3].queue incomingPacketLengths:histogram
field count 0
field mean nan
field stddev nan
field min nan
field max nan
field sum 0
field sqrsum 0
attr interpolationmode none
attr recordingmode histogram
attr source packetLength(packetPushStarted)
attr title "incoming packet lengths"
attr unit b
bin	-inf	0
bin	0	0
bin	1	0
scalar DDoSNetwork.server.eth[3].queue droppedPacketsQueueOverflow:count 0
attr interpolationmode none
attr recordingmode count
attr source packetDropReasonIsQueueOverflow(packetDropped)
attr title "dropped packets: queue overflow, count"
attr unit pk
scalar DDoSNetwork.server.eth[3].queue droppedPacketLengthsQueueOverflow:sum 0
attr interpolationmode none
attr recordingmode sum
attr source packetLength(packetDropReasonIsQueueOverflow(packetDropped))
attr title "dropped packet lengths: queue overflow, sum"
attr unit b
par DDoSNetwork.server.eth[3].mac typename "\"inet.linklayer.ethernet.basic.EthernetMac\""
par DDoSNetwork.server.eth[3].mac interfaceTableModule "\"DDoSNetwork.server.interfaceTable\""
par DDoSNetwork.server.eth[3].mac displayStringTextFormat "\"rate: %b\\nsent: %s, rcvd: %r\\nqueue: %q, drop: %d\""
par DDoSNetwork.server.eth[3].mac sendRawBytes false
par DDoSNetwork.server.eth[3].mac promiscuous false
par DDoSNetwork.server.eth[3].mac duplexMode true
par DDoSNetwork.server.eth[3].mac mtu 1500B
attr unit B
par DDoSNetwork.server.eth[3].mac fcsMode "\"declared\""
attr enum declared,computed
par DDoSNetwork.server.eth[3].mac stopOperationExtraTime -1s
attr unit s
par DDoSNetwork.server.eth[3].mac stopOperationTimeout 2s
attr unit s
scalar DDoSNetwork.server.eth[3].mac "simulated time" 0
scalar DDoSNetwork.server.eth[3].mac full-duplex 1
scalar DDoSNetwork.server.eth[3].mac "rx channel idle (%)" nan
scalar DDoSNetwork.server.eth[3].mac "rx channel utilization (%)" nan
scalar DDoSNetwork.server.eth[3].mac txPk:count 0
attr interpolationmode none
attr recordingmode count
attr source packetSentToLower
attr title "packets transmitted, count"
scalar DDoSNetwork.server.eth[3].mac txPk:sum(packetBytes) 0
attr interpolationmode none
attr recordingmode sum(packetBytes)
attr source packetSentToLower
attr title "packets transmitted, sum(packetBytes)"
scalar DDoSNetwork.server.eth[3].mac packetReceivedFromUpper:count 0
attr interpolationmode none
attr recordingmode count
attr source packetReceivedFromUpper
attr title "packet bytes from higher layer, count"
scalar DDoSNetwork.server.eth[3].mac packetReceivedFromUpper:sum(packetBytes) 0
attr interpolationmode none
attr recordingmode sum(packetBytes)
attr source packetReceivedFromUpper
attr title "packet bytes from higher layer, sum(packetBytes)"
scalar DDoSNetwork.server.eth[3].mac passedUpPk:count 0
attr interpolationmode none
attr recordingmode count
attr source packetSentToUpper
attr title "packets passed to higher layer, count"
scalar DDoSNetwork.server.eth[3].mac passedUpPk:sum(packetBytes) 0
attr interpolationmode none
attr recordingmode sum(packetBytes)
attr source packetSentToUpper
attr title "packets passed to higher layer, sum(packetBytes)"
scalar DDoSNetwork.server.eth[3].mac packetDropIncorrectlyReceived:count 0
attr interpolationmode none
attr recordingmode count
attr source packetDropReasonIsIncorrectlyReceived(packetDropped)
attr title "packet drop: incorrectly received, count"
scalar DDoSNetwork.server.eth[3].mac packetDropIncorrectlyReceived:sum(packetBytes) 0
attr interpolationmode none
attr recordingmode sum(packetBytes)
attr source packetDropReasonIsIncorrectlyReceived(packetDropped)
attr title "packet drop: incorrectly received, sum(packetBytes)"
scalar DDoSNetwork.server.eth[3].mac packetDropInterfaceDown:count 0
attr interpolationmode none
attr recordingmode count
attr source packetDropReasonIsInterfaceDown(packetDropped)
attr title "packet drop: interface down, count"
scalar DDoSNetwork.server.eth[3].mac packetDropInterfaceDown:sum(packetBytes) 0
attr interpolationmode none
attr recordingmode sum(packetBytes)
attr source packetDropReasonIsInterfaceDown(packetDropped)
attr title "packet drop: interface down, sum(packetBytes)"
scalar DDoSNetwork.server.eth[3].mac packetDropNotAddressedToUs:count 0
attr interpolationmode none
attr recordingmode count
attr source packetDropReasonIsNotAddressedToUs(packetDropped)
attr title "packet drop: not addressed to us, count"
scalar DDoSNetwork.server.eth[3].mac packetDropNotAddressedToUs:sum(packetBytes) 0
attr interpolationmode none
attr recordingmode sum(packetBytes)
attr source packetDropReasonIsNotAddressedToUs(packetDropped)
attr title "packet drop: not addressed to us, sum(packetBytes)"
scalar DDoSNetwork.server.eth[3].mac rxPausePkUnits:count 0
attr interpolationmode none
attr recordingmode count
attr title "pause units received, count"
scalar DDoSNetwork.server.eth[3].mac rxPausePkUnits:sum 0
attr interpolationmode none
attr recordingmode sum
attr title "pause units received, sum"
scalar DDoSNetwork.server.eth[3].mac txPausePkUnits:count 0
attr interpolationmode none
attr recordingmode count
attr title "pause units sent, count"
scalar DDoSNetwork.server.eth[3].mac txPausePkUnits:sum 0
attr interpolationmode none
attr recordingmode sum
attr title "pause units sent, sum"
scalar DDoSNetwork.server.eth[3].mac rxPkOk:count 0
attr interpolationmode none
attr recordingmode count
attr source rxPkOk
attr title "packets received OK, count"
scalar DDoSNetwork.server.eth[3].mac rxPkOk:sum(packetBytes) 0
attr interpolationmode none
attr recordingmode sum(packetBytes)
attr source rxPkOk
attr title "packets received OK, sum(packetBytes)"
par DDoSNetwork.server.eth[3] typename "\"inet.linklayer.ethernet.EthernetInterface\""
par DDoSNetwork.server.eth[3] displayStringTextFormat "\"%a (%i)\\n%m\""
par DDoSNetwork.server.eth[3] recordPcap false
par DDoSNetwork.server.eth[3] numPcapRecorders 0
par DDoSNetwork.server.eth[3] interfaceTableModule "\"DDoSNetwork.server.interfaceTable\""
par DDoSNetwork.server.eth[3] protocol "\"ethernetmac\""
par DDoSNetwork.server.eth[3] address "\"0A-AA-00-00-00-04\""
attr mutable ""
par DDoSNetwork.server.eth[3] duplexMode true
par DDoSNetwork.server.eth[3] csmacdSupport false
par DDoSNetwork.server.eth[3] bitrate 0bps
attr unit bps
par DDoSNetwork.server.eth[3] fcsMode "\"declared\""
attr enum declared,computed
scalar DDoSNetwork.server.eth[3] packetDropInterfaceDown:count 0
attr interpolationmode none
attr recordingmode count
attr source packetDropReasonIsInterfaceDown(packetDropped)
attr title "packet drops: interface down, count"
scalar DDoSNetwork.server.eth[3] packetDropInterfaceDown:sum(packetBytes) 0
attr interpolationmode none
attr recordingmode sum(packetBytes)
attr source packetDropReasonIsInterfaceDown(packetDropped)
attr title "packet drops: interface down, sum(packetBytes)"
scalar DDoSNetwork.server.eth[3] packetDropNoCarrier:count 0
attr interpolationmode none
attr recordingmode count
attr source packetDropReasonIsNoCarrier(packetDropped)
attr title "packet drops: no carrier, count"
scalar DDoSNetwork.server.eth[3] packetDropNoCarrier:sum(packetBytes) 0
attr interpolationmode none
attr recordingmode sum(packetBytes)
attr source packetDropReasonIsNoCarrier(packetDropped)
attr title "packet drops: no carrier, sum(packetBytes)"
par DDoSNetwork.server.eth[4].mac.phys$o.channel typename "\"ned.IdealChannel\""
par DDoSNetwork.server.eth[4].phys$i.channel typename "\"ned.IdealChannel\""
par DDoSNetwork.server.eth[4].upperLayerIn.channel typename "\"ned.IdealChannel\""
par DDoSNetwork.server.eth[4].mac.upperLayerOut.channel typename "\"ned.IdealChannel\""
par DDoSNetwork.server.eth[4].queue typename "\"inet.linklayer.ethernet.common.EthernetQueue\""
par DDoSNetwork.server.eth[4].queue displayStringTextFormat "\"contains %p pk (%l) pushed %u\\npulled %o removed %r dropped %d\""
par DDoSNetwork.server.eth[4].queue packetCapacity 1000
par DDoSNetwork.server.eth[4].queue dataCapacity -1b
attr unit b
par DDoSNetwork.server.eth[4].queue dropperClass "\"inet::queueing::PacketAtCollectionEndDropper\""
par DDoSNetwork.server.eth[4].queue comparatorClass "\"inet::EthernetFrameTypeComparator\""
par DDoSNetwork.server.eth[4].queue bufferModule "\"\""
scalar DDoSNetwork.server.eth[4].queue queueLength:last 0
attr autoWarmupFilter false
attr interpolationmode sample-hold
attr recordingmode last
attr source "warmup(atomic(constant0(packetPushEnded) + count(packetPushStarted) - count(packetPulled) - count(packetRemoved) - count(packetDropped)))"
attr title "queue length, last"
attr unit pk
scalar DDoSNetwork.server.eth[4].queue queueLength:max 0
attr autoWarmupFilter false
attr interpolationmode sample-hold
attr recordingmode max
attr source "warmup(atomic(constant0(packetPushEnded) + count(packetPushStarted) - count(packetPulled) - count(packetRemoved) - count(packetDropped)))"
attr title "queue length, max"
attr unit pk
scalar DDoSNetwork.server.eth[4].queue queueLength:timeavg nan
attr autoWarmupFilter false
attr interpolationmode sample-hold
attr recordingmode timeavg
attr source "warmup(atomic(constant0(packetPushEnded) + count(packetPushStarted) - count(packetPulled) - count(packetRemoved) - count(packetDropped)))"
attr title "queue length, timeavg"
attr unit pk
scalar DDoSNetwork.server.eth[4].queue queueBitLength:last 0
attr autoWarmupFilter false
attr interpolationmode sample-hold
attr recordingmode last
attr source "warmup(atomic(constant0(packetPushEnded) + sum(packetLength(packetPushStarted)) - sum(packetLength(packetPulled)) - sum(packetLength(packetRemoved)) - sum(packetLength(packetDropped))))"
attr title "queue bit length, last"
attr unit b
scalar DDoSNetwork.server.eth[4].queue queueBitLength:max 0
attr autoWarmupFilter false
attr interpolationmode sample-hold
attr recordingmode max
attr source "warmup(atomic(constant0(packetPushEnded) + sum(packetLength(packetPushStarted)) - sum(packetLength(packetPulled)) - sum(packetLength(packetRemoved)) - sum(packetLength(packetDropped))))"
attr title "queue bit length, max"
attr unit b
scalar DDoSNetwork.server.eth[4].queue queueBitLength:timeavg nan
attr autoWarmupFilter false
attr interpolationmode sample-hold
attr recordingmode timeavg
attr source "warmup(atomic(constant0(packetPushEnded) + sum(packetLength(packetPushStarted)) - sum(packetLength(packetPulled)) - sum(packetLength(packetRemoved)) - sum(packetLength(packetDropped))))"
attr title "queue bit length, timeavg"
attr unit b
statistic DDoSNetwork.server.eth[4].queue queueingTime:histogram
field count 0
field mean nan
field stddev nan
field min nan
field max nan
field sum 0
field sqrsum 0
attr interpolationmode none
attr recordingmode histogram
attr source queueingTime(packetPulled)
attr title "queueing times"
attr unit s
bin	-inf	0
bin	0	0
bin	1	0
scalar DDoSNetwork.server.eth[4].queue outgoingPackets:count 0
attr recordingmode count
attr source packetPulled
attr title "outgoing packets, count"
attr unit pk
scalar DDoSNetwork.server.eth[4].queue outgoingPacketLengths:sum 0
attr interpolationmode none
attr recordingmode sum
attr source packetLength(packetPulled)
attr title "outgoing packet lengths, sum"
attr unit b
statistic DDoSNetwork.server.eth[4].queue outgoingPacketLengths:histogram
field count 0
field mean nan
field stddev nan
field min nan
field max nan
field sum 0
field sqrsum 0
attr interpolationmode none
attr recordingmode histogram
attr source packetLength(packetPulled)
attr title "outgoing packet lengths"
attr unit b
bin	-inf	0
bin	0	0
bin	1	0
statistic DDoSNetwork.server.eth[4].queue flowQueueingTime:histogram
field count 0
field mean nan
field stddev nan
field min nan
field max nan
field sum 0
field sqrsum 0
attr interpolationmode none
attr recordingmode histogram
attr source queueingTime(demuxFlow(packetPulled))
attr title "flow queueing times"
attr unit s
bin	-inf	0
bin	0	0
bin	1	0
scalar DDoSNetwork.server.eth[4].queue incomingPackets:count 0
attr recordingmode count
attr source packetPushStarted
attr title "incoming packets, count"
attr unit pk
scalar DDoSNetwork.server.eth[4].queue incomingPacketLengths:sum 0
attr interpolationmode none
attr recordingmode sum
attr source packetLength(packetPushStarted)
attr title "incoming packet lengths, sum"
attr unit b
statistic DDoSNetwork.server.eth[4].queue incomingPacketLengths:histogram
field count 0
field mean nan
field stddev nan
field min nan
field max nan
field sum 0
field sqrsum 0
attr interpolationmode none
attr recordingmode histogram
attr source packetLength(packetPushStarted)
attr title "incoming packet lengths"
attr unit b
bin	-inf	0
bin	0	0
bin	1	0
scalar DDoSNetwork.server.eth[4].queue droppedPacketsQueueOverflow:count 0
attr interpolationmode none
attr recordingmode count
attr source packetDropReasonIsQueueOverflow(packetDropped)
attr title "dropped packets: queue overflow, count"
attr unit pk
scalar DDoSNetwork.server.eth[4].queue droppedPacketLengthsQueueOverflow:sum 0
attr interpolationmode none
attr recordingmode sum
attr source packetLength(packetDropReasonIsQueueOverflow(packetDropped))
attr title "dropped packet lengths: queue overflow, sum"
attr unit b
par DDoSNetwork.server.eth[4].mac typename "\"inet.linklayer.ethernet.basic.EthernetMac\""
par DDoSNetwork.server.eth[4].mac interfaceTableModule "\"DDoSNetwork.server.interfaceTable\""
par DDoSNetwork.server.eth[4].mac displayStringTextFormat "\"rate: %b\\nsent: %s, rcvd: %r\\nqueue: %q, drop: %d\""
par DDoSNetwork.server.eth[4].mac sendRawBytes false
par DDoSNetwork.server.eth[4].mac promiscuous false
par DDoSNetwork.server.eth[4].mac duplexMode true
par DDoSNetwork.server.eth[4].mac mtu 1500B
attr unit B
par DDoSNetwork.server.eth[4].mac fcsMode "\"declared\""
attr enum declared,computed
par DDoSNetwork.server.eth[4].mac stopOperationExtraTime -1s
attr unit s
par DDoSNetwork.server.eth[4].mac stopOperationTimeout 2s
attr unit s
scalar DDoSNetwork.server.eth[4].mac "simulated time" 0
scalar DDoSNetwork.server.eth[4].mac full-duplex 1
scalar DDoSNetwork.server.eth[4].mac "rx channel idle (%)" nan
scalar DDoSNetwork.server.eth[4].mac "rx channel utilization (%)" nan
scalar DDoSNetwork.server.eth[4].mac txPk:count 0
attr interpolationmode none
attr recordingmode count
attr source packetSentToLower
attr title "packets transmitted, count"
scalar DDoSNetwork.server.eth[4].mac txPk:sum(packetBytes) 0
attr interpolationmode none
attr recordingmode sum(packetBytes)
attr source packetSentToLower
attr title "packets transmitted, sum(packetBytes)"
scalar DDoSNetwork.server.eth[4].mac packetReceivedFromUpper:count 0
attr interpolationmode none
attr recordingmode count
attr source packetReceivedFromUpper
attr title "packet bytes from higher layer, count"
scalar DDoSNetwork.server.eth[4].mac packetReceivedFromUpper:sum(packetBytes) 0
attr interpolationmode none
attr recordingmode sum(packetBytes)
attr source packetReceivedFromUpper
attr title "packet bytes from higher layer, sum(packetBytes)"
scalar DDoSNetwork.server.eth[4].mac passedUpPk:count 0
attr interpolationmode none
attr recordingmode count
attr source packetSentToUpper
attr title "packets passed to higher layer, count"
scalar DDoSNetwork.server.eth[4].mac passedUpPk:sum(packetBytes) 0
attr interpolationmode none
attr recordingmode sum(packetBytes)
attr source packetSentToUpper
attr title "packets passed to higher layer, sum(packetBytes)"
scalar DDoSNetwork.server.eth[4].mac packetDropIncorrectlyReceived:count 0
attr interpolationmode none
attr recordingmode count
attr source packetDropReasonIsIncorrectlyReceived(packetDropped)
attr title "packet drop: incorrectly received, count"
scalar DDoSNetwork.server.eth[4].mac packetDropIncorrectlyReceived:sum(packetBytes) 0
attr interpolationmode none
attr recordingmode sum(packetBytes)
attr source packetDropReasonIsIncorrectlyReceived(packetDropped)
attr title "packet drop: incorrectly received, sum(packetBytes)"
scalar DDoSNetwork.server.eth[4].mac packetDropInterfaceDown:count 0
attr interpolationmode none
attr recordingmode count
attr source packetDropReasonIsInterfaceDown(packetDropped)
attr title "packet drop: interface down, count"
scalar DDoSNetwork.server.eth[4].mac packetDropInterfaceDown:sum(packetBytes) 0
attr interpolationmode none
attr recordingmode sum(packetBytes)
attr source packetDropReasonIsInterfaceDown(packetDropped)
attr title "packet drop: interface down, sum(packetBytes)"
scalar DDoSNetwork.server.eth[4].mac packetDropNotAddressedToUs:count 0
attr interpolationmode none
attr recordingmode count
attr source packetDropReasonIsNotAddressedToUs(packetDropped)
attr title "packet drop: not addressed to us, count"
scalar DDoSNetwork.server.eth[4].mac packetDropNotAddressedToUs:sum(packetBytes) 0
attr interpolationmode none
attr recordingmode sum(packetBytes)
attr source packetDropReasonIsNotAddressedToUs(packetDropped)
attr title "packet drop: not addressed to us, sum(packetBytes)"
scalar DDoSNetwork.server.eth[4].mac rxPausePkUnits:count 0
attr interpolationmode none
attr recordingmode count
attr title "pause units received, count"
scalar DDoSNetwork.server.eth[4].mac rxPausePkUnits:sum 0
attr interpolationmode none
attr recordingmode sum
attr title "pause units received, sum"
scalar DDoSNetwork.server.eth[4].mac txPausePkUnits:count 0
attr interpolationmode none
attr recordingmode count
attr title "pause units sent, count"
scalar DDoSNetwork.server.eth[4].mac txPausePkUnits:sum 0
attr interpolationmode none
attr recordingmode sum
attr title "pause units sent, sum"
scalar DDoSNetwork.server.eth[4].mac rxPkOk:count 0
attr interpolationmode none
attr recordingmode count
attr source rxPkOk
attr title "packets received OK, count"
scalar DDoSNetwork.server.eth[4].mac rxPkOk:sum(packetBytes) 0
attr interpolationmode none
attr recordingmode sum(packetBytes)
attr source rxPkOk
attr title "packets received OK, sum(packetBytes)"
par DDoSNetwork.server.eth[4] typename "\"inet.linklayer.ethernet.EthernetInterface\""
par DDoSNetwork.server.eth[4] displayStringTextFormat "\"%a (%i)\\n%m\""
par DDoSNetwork.server.eth[4] recordPcap false
par DDoSNetwork.server.eth[4] numPcapRecorders 0
[...]
scalar DDoSNetwork.legitimateClient[2].eth[0].mac rxPkOk:count 0
attr interpolationmode none
attr recordingmode count
attr source rxPkOk
attr title "packets received OK, count"
scalar DDoSNetwork.legitimateClient[2].eth[0].mac rxPkOk:sum(packetBytes) 0
attr interpolationmode none
attr recordingmode sum(packetBytes)
attr source rxPkOk
attr title "packets received OK, sum(packetBytes)"
par DDoSNetwork.legitimateClient[2].eth[0] typename "\"inet.linklayer.ethernet.EthernetInterface\""
par DDoSNetwork.legitimateClient[2].eth[0] displayStringTextFormat "\"%a (%i)\\n%m\""
par DDoSNetwork.legitimateClient[2].eth[0] recordPcap false
par DDoSNetwork.legitimateClient[2].eth[0] numPcapRecorders 0
par DDoSNetwork.legitimateClient[2].eth[0] interfaceTableModule "\"DDoSNetwork.legitimateClient[2].interfaceTable\""
par DDoSNetwork.legitimateClient[2].eth[0] protocol "\"ethernetmac\""
par DDoSNetwork.legitimateClient[2].eth[0] address "\"0A-AA-00-00-00-1A\""
attr mutable ""
par DDoSNetwork.legitimateClient[2].eth[0] duplexMode true
par DDoSNetwork.legitimateClient[2].eth[0] csmacdSupport false
par DDoSNetwork.legitimateClient[2].eth[0] bitrate 0bps
attr unit bps
par DDoSNetwork.legitimateClient[2].eth[0] fcsMode "\"declared\""
attr enum declared,computed
scalar DDoSNetwork.legitimateClient[2].eth[0] packetDropInterfaceDown:count 0
attr interpolationmode none
attr recordingmode count
attr source packetDropReasonIsInterfaceDown(packetDropped)
attr title "packet drops: interface down, count"
scalar DDoSNetwork.legitimateClient[2].eth[0] packetDropInterfaceDown:sum(packetBytes) 0
attr interpolationmode none
attr recordingmode sum(packetBytes)
attr source packetDropReasonIsInterfaceDown(packetDropped)
attr title "packet drops: interface down, sum(packetBytes)"
scalar DDoSNetwork.legitimateClient[2].eth[0] packetDropNoCarrier:count 0
attr interpolationmode none
attr recordingmode count
attr source packetDropReasonIsNoCarrier(packetDropped)
attr title "packet drops: no carrier, count"
scalar DDoSNetwork.legitimateClient[2].eth[0] packetDropNoCarrier:sum(packetBytes) 0
attr interpolationmode none
attr recordingmode sum(packetBytes)
attr source packetDropReasonIsNoCarrier(packetDropped)
attr title "packet drops: no carrier, sum(packetBytes)"
par DDoSNetwork.legitimateClient[2].ipv4.transportIn.channel typename "\"ned.IdealChannel\""
par DDoSNetwork.legitimateClient[2].ipv4.up.out[0].channel typename "\"ned.IdealChannel\""
par DDoSNetwork.legitimateClient[2].ipv4.lp.out[2].channel typename "\"ned.IdealChannel\""
par DDoSNetwork.legitimateClient[2].ipv4.ifIn.channel typename "\"ned.IdealChannel\""
par DDoSNetwork.legitimateClient[2].ipv4.configurator typename "\"inet.networklayer.configurator.ipv4.Ipv4NodeConfigurator\""
par DDoSNetwork.legitimateClient[2].ipv4.configurator interfaceTableModule "\"DDoSNetwork.legitimateClient[2].interfaceTable\""
par DDoSNetwork.legitimateClient[2].ipv4.configurator routingTableModule "\"DDoSNetwork.legitimateClient[2].ipv4.routingTable\""
par DDoSNetwork.legitimateClient[2].ipv4.configurator networkConfiguratorModule "\"configurator\""
par DDoSNetwork.legitimateClient[2].ipv4.configurator configureRoutingTable true
par DDoSNetwork.legitimateClient[2].ipv4.routingTable typename "\"inet.networklayer.ipv4.Ipv4RoutingTable\""
par DDoSNetwork.legitimateClient[2].ipv4.routingTable interfaceTableModule "\"DDoSNetwork.legitimateClient[2].interfaceTable\""
par DDoSNetwork.legitimateClient[2].ipv4.routingTable routerId "\"auto\""
par DDoSNetwork.legitimateClient[2].ipv4.routingTable netmaskRoutes "\"*\""
par DDoSNetwork.legitimateClient[2].ipv4.routingTable forwarding false
par DDoSNetwork.legitimateClient[2].ipv4.routingTable multicastForwarding false
par DDoSNetwork.legitimateClient[2].ipv4.routingTable useAdminDist false
par DDoSNetwork.legitimateClient[2].ipv4.routingTable routingFile "\"\""
par DDoSNetwork.legitimateClient[2].ipv4.natTable typename "\"inet.networklayer.ipv4.Ipv4NatTable\""
par DDoSNetwork.legitimateClient[2].ipv4.natTable networkProtocolModule "\"^.ip\""
par DDoSNetwork.legitimateClient[2].ipv4.natTable config "<config/> at content:1"
par DDoSNetwork.legitimateClient[2].ipv4.up typename "\"inet.common.MessageDispatcher\""
par DDoSNetwork.legitimateClient[2].ipv4.up displayStringTextFormat "\"processed %p pk (%l)\""
par DDoSNetwork.legitimateClient[2].ipv4.up forwardServiceRegistration true
par DDoSNetwork.legitimateClient[2].ipv4.up forwardProtocolRegistration true
par DDoSNetwork.legitimateClient[2].ipv4.igmp typename "\"inet.networklayer.ipv4.Igmpv2\""
par DDoSNetwork.legitimateClient[2].ipv4.igmp interfaceTableModule "\"DDoSNetwork.legitimateClient[2].interfaceTable\""
par DDoSNetwork.legitimateClient[2].ipv4.igmp routingTableModule "\"DDoSNetwork.legitimateClient[2].ipv4.routingTable\""
par DDoSNetwork.legitimateClient[2].ipv4.igmp crcMode "\"declared\""
attr enum declared,computed
par DDoSNetwork.legitimateClient[2].ipv4.igmp enabled true
par DDoSNetwork.legitimateClient[2].ipv4.igmp robustnessVariable 2
par DDoSNetwork.legitimateClient[2].ipv4.igmp queryInterval 125s
attr unit s
par DDoSNetwork.legitimateClient[2].ipv4.igmp queryResponseInterval 10s
attr unit s
par DDoSNetwork.legitimateClient[2].ipv4.igmp groupMembershipInterval 260s
attr unit s
par DDoSNetwork.legitimateClient[2].ipv4.igmp otherQuerierPresentInterval 255s
attr unit s
par DDoSNetwork.legitimateClient[2].ipv4.igmp startupQueryInterval 31.25s
attr unit s
par DDoSNetwork.legitimateClient[2].ipv4.igmp startupQueryCount 2
par DDoSNetwork.legitimateClient[2].ipv4.igmp lastMemberQueryInterval 1s
attr unit s
par DDoSNetwork.legitimateClient[2].ipv4.igmp lastMemberQueryCount 2
par DDoSNetwork.legitimateClient[2].ipv4.igmp unsolicitedReportInterval 10s
attr unit s
par DDoSNetwork.legitimateClient[2].ipv4.icmp typename "\"inet.networklayer.ipv4.Icmp\""
par DDoSNetwork.legitimateClient[2].ipv4.icmp interfaceTableModule "\"DDoSNetwork.legitimateClient[2].interfaceTable\""
par DDoSNetwork.legitimateClient[2].ipv4.icmp routingTableModule "\"DDoSNetwork.legitimateClient[2].ipv4.routingTable\""
par DDoSNetwork.legitimateClient[2].ipv4.icmp crcMode "\"declared\""
attr enum declared,computed
attr mutable ""
par DDoSNetwork.legitimateClient[2].ipv4.icmp quoteLength 8B
attr mutable ""
attr unit B
par DDoSNetwork.legitimateClient[2].ipv4.mp typename "\"inet.common.MessageDispatcher\""
par DDoSNetwork.legitimateClient[2].ipv4.mp displayStringTextFormat "\"processed %p pk (%l)\""
par DDoSNetwork.legitimateClient[2].ipv4.mp forwardServiceRegistration true
par DDoSNetwork.legitimateClient[2].ipv4.mp forwardProtocolRegistration true
par DDoSNetwork.legitimateClient[2].ipv4.ip typename "\"inet.networklayer.ipv4.Ipv4\""
par DDoSNetwork.legitimateClient[2].ipv4.ip interfaceTableModule "\"DDoSNetwork.legitimateClient[2].interfaceTable\""
par DDoSNetwork.legitimateClient[2].ipv4.ip routingTableModule "\"DDoSNetwork.legitimateClient[2].ipv4.routingTable\""
par DDoSNetwork.legitimateClient[2].ipv4.ip arpModule "\"DDoSNetwork.legitimateClient[2].ipv4.arp\""
par DDoSNetwork.legitimateClient[2].ipv4.ip icmpModule "\"DDoSNetwork.legitimateClient[2].ipv4.icmp\""
par DDoSNetwork.legitimateClient[2].ipv4.ip crcMode "\"declared\""
attr enum declared,computed
par DDoSNetwork.legitimateClient[2].ipv4.ip timeToLive 32
par DDoSNetwork.legitimateClient[2].ipv4.ip multicastTimeToLive 32
par DDoSNetwork.legitimateClient[2].ipv4.ip fragmentTimeout 60s
attr unit s
par DDoSNetwork.legitimateClient[2].ipv4.ip limitedBroadcast false
par DDoSNetwork.legitimateClient[2].ipv4.ip directBroadcastInterfaces "\"\""
scalar DDoSNetwork.legitimateClient[2].ipv4.ip packetDropAddressResolutionFailed:count 0
attr interpolationmode none
attr recordingmode count
attr source packetDropReasonIsAddressResolutionFailed(packetDropped)
attr title "packet drop: address resolution failed, count"
scalar DDoSNetwork.legitimateClient[2].ipv4.ip packetDropAddressResolutionFailed:sum(packetBytes) 0
attr interpolationmode none
attr recordingmode sum(packetBytes)
attr source packetDropReasonIsAddressResolutionFailed(packetDropped)
attr title "packet drop: address resolution failed, sum(packetBytes)"
scalar DDoSNetwork.legitimateClient[2].ipv4.ip packetDropHopLimitReached:count 0
attr interpolationmode none
attr recordingmode count
attr source packetDropReasonIsHopLimitReached(packetDropped)
attr title "packet drop: hop limit reached, count"
scalar DDoSNetwork.legitimateClient[2].ipv4.ip packetDropHopLimitReached:sum(packetBytes) 0
attr interpolationmode none
attr recordingmode sum(packetBytes)
attr source packetDropReasonIsHopLimitReached(packetDropped)
attr title "packet drop: hop limit reached, sum(packetBytes)"
scalar DDoSNetwork.legitimateClient[2].ipv4.ip packetDropForwardingDisabled:count 0
attr interpolationmode none
attr recordingmode count
attr source packetDropReasonIsForwardingDisabled(packetDropped)
attr title "packet drop: forwarding disabled, count"
scalar DDoSNetwork.legitimateClient[2].ipv4.ip packetDropForwardingDisabled:sum(packetBytes) 0
attr interpolationmode none
attr recordingmode sum(packetBytes)
attr source packetDropReasonIsForwardingDisabled(packetDropped)
attr title "packet drop: forwarding disabled, sum(packetBytes)"
scalar DDoSNetwork.legitimateClient[2].ipv4.ip packetDropNoInterfaceFound:count 0
attr interpolationmode none
attr recordingmode count
attr source packetDropReasonIsNoInterfaceFound(packetDropped)
attr title "packet drop: no interface found, count"
scalar DDoSNetwork.legitimateClient[2].ipv4.ip packetDropNoInterfaceFound:sum(packetBytes) 0
attr interpolationmode none
attr recordingmode sum(packetBytes)
attr source packetDropReasonIsNoInterfaceFound(packetDropped)
attr title "packet drop: no interface found, sum(packetBytes)"
scalar DDoSNetwork.legitimateClient[2].ipv4.ip packetDropNoRouteFound:count 0
attr interpolationmode none
attr recordingmode count
attr source packetDropReasonIsNoRouteFound(packetDropped)
attr title "packet drop: no route found, count"
scalar DDoSNetwork.legitimateClient[2].ipv4.ip packetDropNoRouteFound:sum(packetBytes) 0
attr interpolationmode none
attr recordingmode sum(packetBytes)
attr source packetDropReasonIsNoRouteFound(packetDropped)
attr title "packet drop: no route found, sum(packetBytes)"
scalar DDoSNetwork.legitimateClient[2].ipv4.ip packetDropUndefined:count 0
attr interpolationmode none
attr recordingmode count
attr source packetDropReasonIsUndefined(packetDropped)
attr title "packet drop: undefined, count"
scalar DDoSNetwork.legitimateClient[2].ipv4.ip packetDropUndefined:sum(packetBytes) 0
attr interpolationmode none
attr recordingmode sum(packetBytes)
attr source packetDropReasonIsUndefined(packetDropped)
attr title "packet drop: undefined, sum(packetBytes)"
par DDoSNetwork.legitimateClient[2].ipv4.arp typename "\"inet.networklayer.arp.ipv4.Arp\""
par DDoSNetwork.legitimateClient[2].ipv4.arp interfaceTableModule "\"DDoSNetwork.legitimateClient[2].interfaceTable\""
par DDoSNetwork.legitimateClient[2].ipv4.arp routingTableModule "\"DDoSNetwork.legitimateClient[2].ipv4.routingTable\""
par DDoSNetwork.legitimateClient[2].ipv4.arp retryTimeout 1s
attr unit s
par DDoSNetwork.legitimateClient[2].ipv4.arp retryCount 3
par DDoSNetwork.legitimateClient[2].ipv4.arp cacheTimeout 120s
attr unit s
par DDoSNetwork.legitimateClient[2].ipv4.arp proxyArpInterfaces "\"\""
scalar DDoSNetwork.legitimateClient[2].ipv4.arp arpReplySent:count 0
attr recordingmode count
attr source arpReplySent
attr title "ARP replies sent, count"
scalar DDoSNetwork.legitimateClient[2].ipv4.arp arpReplySent:sum(packetBytes) 0
attr recordingmode sum(packetBytes)
attr source arpReplySent
attr title "ARP replies sent, sum(packetBytes)"
scalar DDoSNetwork.legitimateClient[2].ipv4.arp arpRequestSent:count 0
attr recordingmode count
attr source arpRequestSent
attr title "ARP request sent, count"
scalar DDoSNetwork.legitimateClient[2].ipv4.arp arpRequestSent:sum(packetBytes) 0
attr recordingmode sum(packetBytes)
attr source arpRequestSent
attr title "ARP request sent, sum(packetBytes)"
scalar DDoSNetwork.legitimateClient[2].ipv4.arp arpResolutionFailed:count 0
attr recordingmode count
attr title "ARP failed resolutions, count"
scalar DDoSNetwork.legitimateClient[2].ipv4.arp arpResolutionCompleted:count 0
attr recordingmode count
attr title "ARP completed resolutions, count"
scalar DDoSNetwork.legitimateClient[2].ipv4.arp arpResolutionInitiated:count 0
attr recordingmode count
attr title "ARP initiated resolutions, count"
par DDoSNetwork.legitimateClient[2].ipv4.lp typename "\"inet.common.MessageDispatcher\""
par DDoSNetwork.legitimateClient[2].ipv4.lp displayStringTextFormat "\"processed %p pk (%l)\""
par DDoSNetwork.legitimateClient[2].ipv4.lp forwardServiceRegistration true
par DDoSNetwork.legitimateClient[2].ipv4.lp forwardProtocolRegistration true
par DDoSNetwork.legitimateClient[2].ipv4 typename "\"inet.networklayer.ipv4.Ipv4NetworkLayer\""
par DDoSNetwork.legitimateClient[2].ipv4 forwarding false
par DDoSNetwork.legitimateClient[2].ipv4 multicastForwarding false
par DDoSNetwork.legitimateClient[2].ipv4 interfaceTableModule "\"DDoSNetwork.legitimateClient[2].interfaceTable\""
par DDoSNetwork.legitimateClient[2].ipv4 displayStringTextFormat "\"%i\""
par DDoSNetwork.legitimateClient[2].nl typename "\"inet.common.MessageDispatcher\""
par DDoSNetwork.legitimateClient[2].nl displayStringTextFormat "\"processed %p pk (%l)\""
par DDoSNetwork.legitimateClient[2].nl forwardServiceRegistration true
par DDoSNetwork.legitimateClient[2].nl forwardProtocolRegistration true
par DDoSNetwork.legitimateClient[2].udp typename "\"inet.transportlayer.udp.Udp\""
par DDoSNetwork.legitimateClient[2].udp interfaceTableModule "\"DDoSNetwork.legitimateClient[2].interfaceTable\""
par DDoSNetwork.legitimateClient[2].udp icmpModule "\"^.ipv4.icmp\""
par DDoSNetwork.legitimateClient[2].udp icmpv6Module "\"^.ipv6.icmpv6\""
par DDoSNetwork.legitimateClient[2].udp crcMode "\"declared\""
attr enum disabled,declared,computed
par DDoSNetwork.legitimateClient[2].udp defaultMulticastLoop true
scalar DDoSNetwork.legitimateClient[2].udp packetReceived:count 0
attr interpolationmode none
attr recordingmode count
attr source packetReceived
attr title "packets received, count"
scalar DDoSNetwork.legitimateClient[2].udp packetReceived:sum(packetBytes) 0
attr interpolationmode none
attr recordingmode sum(packetBytes)
attr source packetReceived
attr title "packets received, sum(packetBytes)"
scalar DDoSNetwork.legitimateClient[2].udp packetSent:count 0
attr interpolationmode none
attr recordingmode count
attr source packetSent
attr title "packets sent, count"
scalar DDoSNetwork.legitimateClient[2].udp packetSent:sum(packetBytes) 0
attr interpolationmode none
attr recordingmode sum(packetBytes)
attr source packetSent
attr title "packets sent, sum(packetBytes)"
scalar DDoSNetwork.legitimateClient[2].udp passedUpPk:count 0
attr interpolationmode none
attr recordingmode count
attr source packetSentToUpper
attr title "packets passed up, count"
scalar DDoSNetwork.legitimateClient[2].udp droppedPkWrongPort:count 0
attr interpolationmode none
attr recordingmode count
attr source packetDropReasonIsNoPortFound(packetDropped)
attr title "packets dropped (wrong port), count"
scalar DDoSNetwork.legitimateClient[2].udp droppedPkBadChecksum:count 0
attr interpolationmode none
attr recordingmode count
attr source packetDropReasonIsIncorrectlyReceived(packetDropped)
attr title "packets dropped (checksum error), count"
par DDoSNetwork.legitimateClient[2].tcp typename "\"inet.transportlayer.tcp.Tcp\""
par DDoSNetwork.legitimateClient[2].tcp crcMode "\"declared\""
attr enum declared,computed
par DDoSNetwork.legitimateClient[2].tcp advertisedWindow 7504
par DDoSNetwork.legitimateClient[2].tcp delayedAcksEnabled false
par DDoSNetwork.legitimateClient[2].tcp nagleEnabled true
par DDoSNetwork.legitimateClient[2].tcp limitedTransmitEnabled false
par DDoSNetwork.legitimateClient[2].tcp increasedIWEnabled false
par DDoSNetwork.legitimateClient[2].tcp sackSupport false
par DDoSNetwork.legitimateClient[2].tcp windowScalingSupport false
par DDoSNetwork.legitimateClient[2].tcp windowScalingFactor -1
par DDoSNetwork.legitimateClient[2].tcp timestampSupport false
par DDoSNetwork.legitimateClient[2].tcp mss 536
par DDoSNetwork.legitimateClient[2].tcp msl 120s
attr unit s
par DDoSNetwork.legitimateClient[2].tcp tcpAlgorithmClass "\"TcpReno\""
par DDoSNetwork.legitimateClient[2].tcp useDataNotification false
par DDoSNetwork.legitimateClient[2].tcp dupthresh 3
par DDoSNetwork.legitimateClient[2].tcp initialSsthresh 4294967295
par DDoSNetwork.legitimateClient[2].tcp stopOperationExtraTime 0s
attr unit s
par DDoSNetwork.legitimateClient[2].tcp stopOperationTimeout 2s
attr unit s
par DDoSNetwork.legitimateClient[2].tcp ecnWillingness false
par DDoSNetwork.legitimateClient[2].tcp dctcpGamma 0.0625
par DDoSNetwork.legitimateClient[2].tn typename "\"inet.common.MessageDispatcher\""
par DDoSNetwork.legitimateClient[2].tn displayStringTextFormat "\"processed %p pk (%l)\""
par DDoSNetwork.legitimateClient[2].tn forwardServiceRegistration true
par DDoSNetwork.legitimateClient[2].tn forwardProtocolRegistration true
par DDoSNetwork.legitimateClient[2].app[0].ta.out[1].channel typename "\"ned.IdealChannel\""
par DDoSNetwork.legitimateClient[2].app[0].socketIn.channel typename "\"ned.IdealChannel\""
par DDoSNetwork.legitimateClient[2].app[0].listener typename "\"inet.applications.tcpapp.TcpServerListener\""
par DDoSNetwork.legitimateClient[2].app[0].listener localAddress "\"\""
par DDoSNetwork.legitimateClient[2].app[0].listener localPort 1000
par DDoSNetwork.legitimateClient[2].app[0].listener serverConnectionModuleType "\"inet.applications.tcpapp.TcpServerConnection\""
par DDoSNetwork.legitimateClient[2].app[0].ta typename "\"inet.common.MessageDispatcher\""
par DDoSNetwork.legitimateClient[2].app[0].ta displayStringTextFormat "\"processed %p pk (%l)\""
par DDoSNetwork.legitimateClient[2].app[0].ta forwardServiceRegistration true
par DDoSNetwork.legitimateClient[2].app[0].ta forwardProtocolRegistration true
par DDoSNetwork.legitimateClient[2].app[0] typename "\"inet.applications.tcpapp.TcpServerApp\""
par DDoSNetwork.legitimateClient[2].at typename "\"inet.common.MessageDispatcher\""
par DDoSNetwork.legitimateClient[2].at displayStringTextFormat "\"processed %p pk (%l)\""
par DDoSNetwork.legitimateClient[2].at forwardServiceRegistration true
par DDoSNetwork.legitimateClient[2].at forwardProtocolRegistration true
par DDoSNetwork.legitimateClient[2] typename "\"inet.node.inet.StandardHost\""
par DDoSNetwork.legitimateClient[2] hasStatus false
par DDoSNetwork.legitimateClient[2] osgModel "\"\""
par DDoSNetwork.legitimateClient[2] osgModelColor "\"\""
par DDoSNetwork.legitimateClient[2] canvasImage "\"\""
par DDoSNetwork.legitimateClient[2] canvasImageColor "\"\""
par DDoSNetwork.legitimateClient[2] recordPcap false
par DDoSNetwork.legitimateClient[2] numPcapRecorders 0
par DDoSNetwork.legitimateClient[2] numLoInterfaces 1
par DDoSNetwork.legitimateClient[2] numWlanInterfaces 0
par DDoSNetwork.legitimateClient[2] numEthInterfaces 0
par DDoSNetwork.legitimateClient[2] numPppInterfaces 0
par DDoSNetwork.legitimateClient[2] numTunInterfaces 0
par DDoSNetwork.legitimateClient[2] numVirtInterfaces 0
par DDoSNetwork.legitimateClient[2] fcsMode "\"declared\""
attr enum declared,computed
par DDoSNetwork.legitimateClient[2] hasIpv4 true
par DDoSNetwork.legitimateClient[2] hasIpv6 false
par DDoSNetwork.legitimateClient[2] hasGn false
par DDoSNetwork.legitimateClient[2] forwarding false
par DDoSNetwork.legitimateClient[2] multicastForwarding false
par DDoSNetwork.legitimateClient[2] hasUdp true
par DDoSNetwork.legitimateClient[2] hasTcp true
par DDoSNetwork.legitimateClient[2] hasSctp false
par DDoSNetwork.legitimateClient[2] numApps 1
par DDoSNetwork typename "\"DDoSNetwork\""
par DDoSNetwork baseX 100
par DDoSNetwork spacingA 30
par DDoSNetwork spacingB 70

