version 3
run General-0-20250314-07:41:47-23268
attr configname General
attr datetime 20250314-07:41:47
attr datetimef 20250314-074147
attr experiment General
attr inifile omnetpp.ini
attr iterationvars ""
attr iterationvarsd ""
attr iterationvarsf ""
attr measurement ""
attr network DDoSNetwork
attr processid 23268
attr repetition 0
attr replication #0
attr resultdir results
attr runnumber 0
attr seedset 0
config image-path ../inet4.5/images
config network DDoSNetwork
config sim-time-limit 30s
config record-eventlog true
config *.visualizer.*.packetDropVisualizer.displayPacketDrops true
config *.visualizer.*.transportConnectionVisualizer.displayTransportConnections false
config *.visualizer.*.packetFlowVisualizer.displayPacketFlows false
config *.**.tcp.connection.verbose false
config *.router.eth[*].queue.typename REDQueue
config *.router.eth[*].queue.red.minth 5
config *.router.eth[*].queue.red.maxth 15
config *.router.eth[*].queue.red.wq 0.002
config *.router.eth[*].queue.red.maxp 0.1
config *.router.eth[*].queue.numDroppedPackets:count.record true
config **.server.numApps 1
config **.server.app[0].typename TcpServerApp
config **.server.app[0].listener.localAddress "\"10.0.0.1\""
config **.server.app[0].listener.localPort 80
config **.server.app[0].connection[*].source.packetLength 1000b
config **.server.app[0].connection[*].source.productionInterval 3s
config **.attacker[*].numApps 1
config **.attacker[*].app[0].typename TcpClientApp
config **.attacker[*].app[0].io.connectAddress "\"10.0.0.1\""
config **.attacker[*].app[0].io.connectPort 80
config **.attacker[*].app[0].source.packetLength 1B
config **.attacker[*].app[0].source.productionInterval 0.1s
config **.legitimateClient[*].numApps 1
config **.legitimateClient[*].app[0].typename TcpClientApp
config **.legitimateClient[*].app[0].io.connectAddress "\"10.0.0.1\""
config **.legitimateClient[*].app[0].io.connectPort 80
config **.legitimateClient[*].app[0].source.packetLength 1000B
config **.legitimateClient[*].app[0].source.productionInterval 3s
config *.tcp.msl 1s
config *.tcp.synRetries 2

par DDoSNetwork.router.ethg$o[0].channel typename "\"inet.node.ethernet.Eth100M\""
par DDoSNetwork.router.ethg$o[0].channel disabled false
attr mutable ""
par DDoSNetwork.router.ethg$o[0].channel delay 5e-08s
attr mutable ""
attr unit s
par DDoSNetwork.router.ethg$o[0].channel datarate 1e+08bps
attr mutable ""
attr unit bps
par DDoSNetwork.router.ethg$o[0].channel ber 0
attr mutable ""
par DDoSNetwork.router.ethg$o[0].channel per 0
attr mutable ""
par DDoSNetwork.router.ethg$o[0].channel length 10m
attr unit m
par DDoSNetwork.server.ethg$o[0].channel typename "\"inet.node.ethernet.Eth100M\""
par DDoSNetwork.server.ethg$o[0].channel disabled false
attr mutable ""
par DDoSNetwork.server.ethg$o[0].channel delay 5e-08s
attr mutable ""
attr unit s
par DDoSNetwork.server.ethg$o[0].channel datarate 1e+08bps
attr mutable ""
attr unit bps
par DDoSNetwork.server.ethg$o[0].channel ber 0
attr mutable ""
par DDoSNetwork.server.ethg$o[0].channel per 0
attr mutable ""
par DDoSNetwork.server.ethg$o[0].channel length 10m
attr unit m
par DDoSNetwork.attacker[0].ethg$o[0].channel typename "\"inet.node.ethernet.Eth100M\""
par DDoSNetwork.attacker[0].ethg$o[0].channel disabled false
attr mutable ""
par DDoSNetwork.attacker[0].ethg$o[0].channel delay 5e-08s
attr mutable ""
attr unit s
par DDoSNetwork.attacker[0].ethg$o[0].channel datarate 1e+08bps
attr mutable ""
attr unit bps
par DDoSNetwork.attacker[0].ethg$o[0].channel ber 0
attr mutable ""
par DDoSNetwork.attacker[0].ethg$o[0].channel per 0
attr mutable ""
par DDoSNetwork.attacker[0].ethg$o[0].channel length 10m
attr unit m
par DDoSNetwork.router.ethg$o[1].channel typename "\"inet.node.ethernet.Eth100M\""
par DDoSNetwork.router.ethg$o[1].channel disabled false
attr mutable ""
par DDoSNetwork.router.ethg$o[1].channel delay 5e-08s
attr mutable ""
attr unit s
par DDoSNetwork.router.ethg$o[1].channel datarate 1e+08bps
attr mutable ""
attr unit bps
par DDoSNetwork.router.ethg$o[1].channel ber 0
attr mutable ""
par DDoSNetwork.router.ethg$o[1].channel per 0
attr mutable ""
par DDoSNetwork.router.ethg$o[1].channel length 10m
attr unit m
par DDoSNetwork.attacker[1].ethg$o[0].channel typename "\"inet.node.ethernet.Eth100M\""
par DDoSNetwork.attacker[1].ethg$o[0].channel disabled false
attr mutable ""
par DDoSNetwork.attacker[1].ethg$o[0].channel delay 5e-08s
attr mutable ""
attr unit s
par DDoSNetwork.attacker[1].ethg$o[0].channel datarate 1e+08bps
attr mutable ""
attr unit bps
par DDoSNetwork.attacker[1].ethg$o[0].channel ber 0
attr mutable ""
par DDoSNetwork.attacker[1].ethg$o[0].channel per 0
attr mutable ""
par DDoSNetwork.attacker[1].ethg$o[0].channel length 10m
attr unit m
par DDoSNetwork.router.ethg$o[2].channel typename "\"inet.node.ethernet.Eth100M\""
par DDoSNetwork.router.ethg$o[2].channel disabled false
attr mutable ""
par DDoSNetwork.router.ethg$o[2].channel delay 5e-08s
attr mutable ""
attr unit s
par DDoSNetwork.router.ethg$o[2].channel datarate 1e+08bps
attr mutable ""
attr unit bps
par DDoSNetwork.router.ethg$o[2].channel ber 0
attr mutable ""
par DDoSNetwork.router.ethg$o[2].channel per 0
attr mutable ""
par DDoSNetwork.router.ethg$o[2].channel length 10m
attr unit m
par DDoSNetwork.attacker[2].ethg$o[0].channel typename "\"inet.node.ethernet.Eth100M\""
par DDoSNetwork.attacker[2].ethg$o[0].channel disabled false
attr mutable ""
par DDoSNetwork.attacker[2].ethg$o[0].channel delay 5e-08s
attr mutable ""
attr unit s
par DDoSNetwork.attacker[2].ethg$o[0].channel datarate 1e+08bps
attr mutable ""
attr unit bps
par DDoSNetwork.attacker[2].ethg$o[0].channel ber 0
attr mutable ""
par DDoSNetwork.attacker[2].ethg$o[0].channel per 0
attr mutable ""
par DDoSNetwork.attacker[2].ethg$o[0].channel length 10m
attr unit m
par DDoSNetwork.router.ethg$o[3].channel typename "\"inet.node.ethernet.Eth100M\""
par DDoSNetwork.router.ethg$o[3].channel disabled false
attr mutable ""
par DDoSNetwork.router.ethg$o[3].channel delay 5e-08s
attr mutable ""
attr unit s
par DDoSNetwork.router.ethg$o[3].channel datarate 1e+08bps
attr mutable ""
attr unit bps
par DDoSNetwork.router.ethg$o[3].channel ber 0
attr mutable ""
par DDoSNetwork.router.ethg$o[3].channel per 0
attr mutable ""
par DDoSNetwork.router.ethg$o[3].channel length 10m
attr unit m
par DDoSNetwork.attacker[3].ethg$o[0].channel typename "\"inet.node.ethernet.Eth100M\""
par DDoSNetwork.attacker[3].ethg$o[0].channel disabled false
attr mutable ""
par DDoSNetwork.attacker[3].ethg$o[0].channel delay 5e-08s
attr mutable ""
attr unit s
par DDoSNetwork.attacker[3].ethg$o[0].channel datarate 1e+08bps
attr mutable ""
attr unit bps
par DDoSNetwork.attacker[3].ethg$o[0].channel ber 0
attr mutable ""
par DDoSNetwork.attacker[3].ethg$o[0].channel per 0
attr mutable ""
par DDoSNetwork.attacker[3].ethg$o[0].channel length 10m
attr unit m
par DDoSNetwork.router.ethg$o[4].channel typename "\"inet.node.ethernet.Eth100M\""
par DDoSNetwork.router.ethg$o[4].channel disabled false
attr mutable ""
par DDoSNetwork.router.ethg$o[4].channel delay 5e-08s
attr mutable ""
attr unit s
par DDoSNetwork.router.ethg$o[4].channel datarate 1e+08bps
attr mutable ""
attr unit bps
par DDoSNetwork.router.ethg$o[4].channel ber 0
attr mutable ""
par DDoSNetwork.router.ethg$o[4].channel per 0
attr mutable ""
par DDoSNetwork.router.ethg$o[4].channel length 10m
attr unit m
par DDoSNetwork.attacker[4].ethg$o[0].channel typename "\"inet.node.ethernet.Eth100M\""
par DDoSNetwork.attacker[4].ethg$o[0].channel disabled false
attr mutable ""
par DDoSNetwork.attacker[4].ethg$o[0].channel delay 5e-08s
attr mutable ""
attr unit s
par DDoSNetwork.attacker[4].ethg$o[0].channel datarate 1e+08bps
attr mutable ""
attr unit bps
par DDoSNetwork.attacker[4].ethg$o[0].channel ber 0
attr mutable ""
par DDoSNetwork.attacker[4].ethg$o[0].channel per 0
attr mutable ""
par DDoSNetwork.attacker[4].ethg$o[0].channel length 10m
attr unit m
par DDoSNetwork.router.ethg$o[5].channel typename "\"inet.node.ethernet.Eth100M\""
par DDoSNetwork.router.ethg$o[5].channel disabled false
attr mutable ""
par DDoSNetwork.router.ethg$o[5].channel delay 5e-08s
attr mutable ""
attr unit s
par DDoSNetwork.router.ethg$o[5].channel datarate 1e+08bps
attr mutable ""
attr unit bps
par DDoSNetwork.router.ethg$o[5].channel ber 0
attr mutable ""
par DDoSNetwork.router.ethg$o[5].channel per 0
attr mutable ""
par DDoSNetwork.router.ethg$o[5].channel length 10m
attr unit m
par DDoSNetwork.attacker[5].ethg$o[0].channel typename "\"inet.node.ethernet.Eth100M\""
par DDoSNetwork.attacker[5].ethg$o[0].channel disabled false
attr mutable ""
par DDoSNetwork.attacker[5].ethg$o[0].channel delay 5e-08s
attr mutable ""
attr unit s
par DDoSNetwork.attacker[5].ethg$o[0].channel datarate 1e+08bps
attr mutable ""
attr unit bps
par DDoSNetwork.attacker[5].ethg$o[0].channel ber 0
attr mutable ""
par DDoSNetwork.attacker[5].ethg$o[0].channel per 0
attr mutable ""
par DDoSNetwork.attacker[5].ethg$o[0].channel length 10m
attr unit m
par DDoSNetwork.router.ethg$o[6].channel typename "\"inet.node.ethernet.Eth100M\""
par DDoSNetwork.router.ethg$o[6].channel disabled false
attr mutable ""
par DDoSNetwork.router.ethg$o[6].channel delay 5e-08s
attr mutable ""
attr unit s
par DDoSNetwork.router.ethg$o[6].channel datarate 1e+08bps
attr mutable ""
attr unit bps
par DDoSNetwork.router.ethg$o[6].channel ber 0
attr mutable ""
par DDoSNetwork.router.ethg$o[6].channel per 0
attr mutable ""
par DDoSNetwork.router.ethg$o[6].channel length 10m
attr unit m
par DDoSNetwork.attacker[6].ethg$o[0].channel typename "\"inet.node.ethernet.Eth100M\""
par DDoSNetwork.attacker[6].ethg$o[0].channel disabled false
attr mutable ""
par DDoSNetwork.attacker[6].ethg$o[0].channel delay 5e-08s
attr mutable ""
attr unit s
par DDoSNetwork.attacker[6].ethg$o[0].channel datarate 1e+08bps
attr mutable ""
attr unit bps
par DDoSNetwork.attacker[6].ethg$o[0].channel ber 0
attr mutable ""
par DDoSNetwork.attacker[6].ethg$o[0].channel per 0
attr mutable ""
par DDoSNetwork.attacker[6].ethg$o[0].channel length 10m
attr unit m
par DDoSNetwork.router.ethg$o[7].channel typename "\"inet.node.ethernet.Eth100M\""
par DDoSNetwork.router.ethg$o[7].channel disabled false
attr mutable ""
par DDoSNetwork.router.ethg$o[7].channel delay 5e-08s
attr mutable ""
attr unit s
par DDoSNetwork.router.ethg$o[7].channel datarate 1e+08bps
attr mutable ""
attr unit bps
par DDoSNetwork.router.ethg$o[7].channel ber 0
attr mutable ""
par DDoSNetwork.router.ethg$o[7].channel per 0
attr mutable ""
par DDoSNetwork.router.ethg$o[7].channel length 10m
attr unit m
par DDoSNetwork.attacker[7].ethg$o[0].channel typename "\"inet.node.ethernet.Eth100M\""
par DDoSNetwork.attacker[7].ethg$o[0].channel disabled false
attr mutable ""
par DDoSNetwork.attacker[7].ethg$o[0].channel delay 5e-08s
attr mutable ""
attr unit s
par DDoSNetwork.attacker[7].ethg$o[0].channel datarate 1e+08bps
attr mutable ""
attr unit bps
par DDoSNetwork.attacker[7].ethg$o[0].channel ber 0
attr mutable ""
par DDoSNetwork.attacker[7].ethg$o[0].channel per 0
attr mutable ""
par DDoSNetwork.attacker[7].ethg$o[0].channel length 10m
attr unit m
par DDoSNetwork.router.ethg$o[8].channel typename "\"inet.node.ethernet.Eth100M\""
par DDoSNetwork.router.ethg$o[8].channel disabled false
attr mutable ""
par DDoSNetwork.router.ethg$o[8].channel delay 5e-08s
attr mutable ""
attr unit s
par DDoSNetwork.router.ethg$o[8].channel datarate 1e+08bps
attr mutable ""
attr unit bps
par DDoSNetwork.router.ethg$o[8].channel ber 0
attr mutable ""
par DDoSNetwork.router.ethg$o[8].channel per 0
attr mutable ""
par DDoSNetwork.router.ethg$o[8].channel length 10m
attr unit m
par DDoSNetwork.attacker[8].ethg$o[0].channel typename "\"inet.node.ethernet.Eth100M\""
par DDoSNetwork.attacker[8].ethg$o[0].channel disabled false
attr mutable ""
par DDoSNetwork.attacker[8].ethg$o[0].channel delay 5e-08s
attr mutable ""
attr unit s
par DDoSNetwork.attacker[8].ethg$o[0].channel datarate 1e+08bps
attr mutable ""
attr unit bps
par DDoSNetwork.attacker[8].ethg$o[0].channel ber 0
attr mutable ""
par DDoSNetwork.attacker[8].ethg$o[0].channel per 0
attr mutable ""
par DDoSNetwork.attacker[8].ethg$o[0].channel length 10m
attr unit m
par DDoSNetwork.router.ethg$o[9].channel typename "\"inet.node.ethernet.Eth100M\""
par DDoSNetwork.router.ethg$o[9].channel disabled false
attr mutable ""
par DDoSNetwork.router.ethg$o[9].channel delay 5e-08s
attr mutable ""
attr unit s
par DDoSNetwork.router.ethg$o[9].channel datarate 1e+08bps
attr mutable ""
attr unit bps
par DDoSNetwork.router.ethg$o[9].channel ber 0
attr mutable ""
par DDoSNetwork.router.ethg$o[9].channel per 0
attr mutable ""
par DDoSNetwork.router.ethg$o[9].channel length 10m
attr unit m
par DDoSNetwork.attacker[9].ethg$o[0].channel typename "\"inet.node.ethernet.Eth100M\""
par DDoSNetwork.attacker[9].ethg$o[0].channel disabled false
attr mutable ""
par DDoSNetwork.attacker[9].ethg$o[0].channel delay 5e-08s
attr mutable ""
attr unit s
par DDoSNetwork.attacker[9].ethg$o[0].channel datarate 1e+08bps
attr mutable ""
attr unit bps
par DDoSNetwork.attacker[9].ethg$o[0].channel ber 0
attr mutable ""
par DDoSNetwork.attacker[9].ethg$o[0].channel per 0
attr mutable ""
par DDoSNetwork.attacker[9].ethg$o[0].channel length 10m
attr unit m
par DDoSNetwork.router.ethg$o[10].channel typename "\"inet.node.ethernet.Eth100M\""
par DDoSNetwork.router.ethg$o[10].channel disabled false
attr mutable ""
par DDoSNetwork.router.ethg$o[10].channel delay 5e-08s
attr mutable ""
attr unit s
par DDoSNetwork.router.ethg$o[10].channel datarate 1e+08bps
attr mutable ""
attr unit bps
par DDoSNetwork.router.ethg$o[10].channel ber 0
attr mutable ""
par DDoSNetwork.router.ethg$o[10].channel per 0
attr mutable ""
par DDoSNetwork.router.ethg$o[10].channel length 10m
attr unit m
par DDoSNetwork.legitimateClient[0].ethg$o[0].channel typename "\"inet.node.ethernet.Eth100M\""
par DDoSNetwork.legitimateClient[0].ethg$o[0].channel disabled false
attr mutable ""
par DDoSNetwork.legitimateClient[0].ethg$o[0].channel delay 5e-08s
attr mutable ""
attr unit s
par DDoSNetwork.legitimateClient[0].ethg$o[0].channel datarate 1e+08bps
attr mutable ""
attr unit bps
par DDoSNetwork.legitimateClient[0].ethg$o[0].channel ber 0
attr mutable ""
par DDoSNetwork.legitimateClient[0].ethg$o[0].channel per 0
attr mutable ""
par DDoSNetwork.legitimateClient[0].ethg$o[0].channel length 10m
attr unit m
par DDoSNetwork.router.ethg$o[11].channel typename "\"inet.node.ethernet.Eth100M\""
par DDoSNetwork.router.ethg$o[11].channel disabled false
attr mutable ""
par DDoSNetwork.router.ethg$o[11].channel delay 5e-08s
attr mutable ""
attr unit s
par DDoSNetwork.router.ethg$o[11].channel datarate 1e+08bps
attr mutable ""
attr unit bps
par DDoSNetwork.router.ethg$o[11].channel ber 0
attr mutable ""
par DDoSNetwork.router.ethg$o[11].channel per 0
attr mutable ""
par DDoSNetwork.router.ethg$o[11].channel length 10m
attr unit m
par DDoSNetwork.legitimateClient[1].ethg$o[0].channel typename "\"inet.node.ethernet.Eth100M\""
par DDoSNetwork.legitimateClient[1].ethg$o[0].channel disabled false
attr mutable ""
par DDoSNetwork.legitimateClient[1].ethg$o[0].channel delay 5e-08s
attr mutable ""
attr unit s
par DDoSNetwork.legitimateClient[1].ethg$o[0].channel datarate 1e+08bps
attr mutable ""
attr unit bps
par DDoSNetwork.legitimateClient[1].ethg$o[0].channel ber 0
attr mutable ""
par DDoSNetwork.legitimateClient[1].ethg$o[0].channel per 0
attr mutable ""
par DDoSNetwork.legitimateClient[1].ethg$o[0].channel length 10m
attr unit m
par DDoSNetwork.router.ethg$o[12].channel typename "\"inet.node.ethernet.Eth100M\""
par DDoSNetwork.router.ethg$o[12].channel disabled false
attr mutable ""
par DDoSNetwork.router.ethg$o[12].channel delay 5e-08s
attr mutable ""
attr unit s
par DDoSNetwork.router.ethg$o[12].channel datarate 1e+08bps
attr mutable ""
attr unit bps
par DDoSNetwork.router.ethg$o[12].channel ber 0
attr mutable ""
par DDoSNetwork.router.ethg$o[12].channel per 0
attr mutable ""
par DDoSNetwork.router.ethg$o[12].channel length 10m
attr unit m
par DDoSNetwork.router.ethg$i[0].channel typename "\"ned.IdealChannel\""
par DDoSNetwork.router.eth[0].phys$o.channel typename "\"ned.IdealChannel\""
par DDoSNetwork.router.ethg$i[1].channel typename "\"ned.IdealChannel\""
par DDoSNetwork.router.eth[1].phys$o.channel typename "\"ned.IdealChannel\""
par DDoSNetwork.router.ethg$i[2].channel typename "\"ned.IdealChannel\""
par DDoSNetwork.router.eth[2].phys$o.channel typename "\"ned.IdealChannel\""
par DDoSNetwork.router.ethg$i[3].channel typename "\"ned.IdealChannel\""
par DDoSNetwork.router.eth[3].phys$o.channel typename "\"ned.IdealChannel\""
par DDoSNetwork.router.ethg$i[4].channel typename "\"ned.IdealChannel\""
par DDoSNetwork.router.eth[4].phys$o.channel typename "\"ned.IdealChannel\""
par DDoSNetwork.router.ethg$i[5].channel typename "\"ned.IdealChannel\""
par DDoSNetwork.router.eth[5].phys$o.channel typename "\"ned.IdealChannel\""
par DDoSNetwork.router.ethg$i[6].channel typename "\"ned.IdealChannel\""
par DDoSNetwork.router.eth[6].phys$o.channel typename "\"ned.IdealChannel\""
par DDoSNetwork.router.ethg$i[7].channel typename "\"ned.IdealChannel\""
par DDoSNetwork.router.eth[7].phys$o.channel typename "\"ned.IdealChannel\""
par DDoSNetwork.router.ethg$i[8].channel typename "\"ned.IdealChannel\""
par DDoSNetwork.router.eth[8].phys$o.channel typename "\"ned.IdealChannel\""
par DDoSNetwork.router.ethg$i[9].channel typename "\"ned.IdealChannel\""
par DDoSNetwork.router.eth[9].phys$o.channel typename "\"ned.IdealChannel\""
par DDoSNetwork.router.ethg$i[10].channel typename "\"ned.IdealChannel\""
par DDoSNetwork.router.eth[10].phys$o.channel typename "\"ned.IdealChannel\""
par DDoSNetwork.router.ethg$i[11].channel typename "\"ned.IdealChannel\""
par DDoSNetwork.router.eth[11].phys$o.channel typename "\"ned.IdealChannel\""
par DDoSNetwork.router.ethg$i[12].channel typename "\"ned.IdealChannel\""
par DDoSNetwork.router.eth[12].phys$o.channel typename "\"ned.IdealChannel\""
par DDoSNetwork.router.interfaceTable typename "\"inet.networklayer.common.InterfaceTable\""
par DDoSNetwork.router.interfaceTable displayAddresses false
par DDoSNetwork.router.cb typename "\"inet.common.MessageDispatcher\""
par DDoSNetwork.router.cb displayStringTextFormat "\"processed %p pk (%l)\""
par DDoSNetwork.router.cb forwardServiceRegistration true
par DDoSNetwork.router.cb forwardProtocolRegistration true
par DDoSNetwork.router.bl typename "\"inet.common.MessageDispatcher\""
par DDoSNetwork.router.bl displayStringTextFormat "\"processed %p pk (%l)\""
par DDoSNetwork.router.bl forwardServiceRegistration true
par DDoSNetwork.router.bl forwardProtocolRegistration true
par DDoSNetwork.router.ethernet typename "\"inet.linklayer.ethernet.basic.EthernetEncapsulation\""
par DDoSNetwork.router.ethernet registerProtocol true
par DDoSNetwork.router.ethernet interfaceTableModule "\"DDoSNetwork.router.interfaceTable\""
par DDoSNetwork.router.ethernet fcsMode "\"declared\""
attr enum declared,computed
par DDoSNetwork.router.ethernet stopOperationExtraTime -1s
attr unit s
par DDoSNetwork.router.ethernet stopOperationTimeout 2s
attr unit s
scalar DDoSNetwork.router.ethernet decapPk:count 24
attr interpolationmode none
attr recordingmode count
attr source decapPk
attr title "packets decapsulated, count"
scalar DDoSNetwork.router.ethernet decapPk:sum(packetBytes) 1104
attr interpolationmode none
attr recordingmode sum(packetBytes)
attr source decapPk
attr title "packets decapsulated, sum(packetBytes)"
scalar DDoSNetwork.router.ethernet encapPk:count 24
attr interpolationmode none
attr recordingmode count
attr source encapPk
attr title "packets encapsulated, count"
scalar DDoSNetwork.router.ethernet encapPk:sum(packetBytes) 1008
attr interpolationmode none
attr recordingmode sum(packetBytes)
attr source encapPk
attr title "packets encapsulated, sum(packetBytes)"
scalar DDoSNetwork.router.ethernet pauseSent:count 0
attr recordingmode count
attr title "pause sent, count"
scalar DDoSNetwork.router.ethernet pauseSent:sum 0
attr recordingmode sum
attr title "pause sent, sum"
par DDoSNetwork.router.li typename "\"inet.common.MessageDispatcher\""
par DDoSNetwork.router.li displayStringTextFormat "\"processed %p pk (%l)\""
par DDoSNetwork.router.li forwardServiceRegistration true
par DDoSNetwork.router.li forwardProtocolRegistration true
par DDoSNetwork.router.lo[0].upperLayerIn.channel typename "\"ned.IdealChannel\""
par DDoSNetwork.router.lo[0].lo.upperLayerOut.channel typename "\"ned.IdealChannel\""
par DDoSNetwork.router.lo[0].lo typename "\"inet.linklayer.loopback.Loopback\""
par DDoSNetwork.router.lo[0].lo interfaceTableModule "\"DDoSNetwork.router.interfaceTable\""
par DDoSNetwork.router.lo[0].lo mtu 4470B
attr unit B
scalar DDoSNetwork.router.lo[0].lo rcvdPkFromHl:count 0
attr interpolationmode none
attr recordingmode count
attr source packetReceivedFromUpper
attr title "packets received from higher layer, count"
scalar DDoSNetwork.router.lo[0].lo rcvdPkFromHl:sum(packetBytes) 0
attr interpolationmode none
attr recordingmode sum(packetBytes)
attr source packetReceivedFromUpper
attr title "packets received from higher layer, sum(packetBytes)"
scalar DDoSNetwork.router.lo[0].lo passedUpPk:count 0
attr interpolationmode none
attr recordingmode count
attr source packetSentToUpper
attr title "packets passed to higher layer, count"
scalar DDoSNetwork.router.lo[0].lo passedUpPk:sum(packetBytes) 0
attr interpolationmode none
attr recordingmode sum(packetBytes)
attr source packetSentToUpper
attr title "packets passed to higher layer, sum(packetBytes)"
par DDoSNetwork.router.lo[0] typename "\"inet.linklayer.loopback.LoopbackInterface\""
par DDoSNetwork.router.lo[0] displayStringTextFormat "\"%a (%i)\\n%m\""
par DDoSNetwork.router.lo[0] recordPcap false
par DDoSNetwork.router.lo[0] numPcapRecorders 0
par DDoSNetwork.router.lo[0] interfaceTableModule "\"DDoSNetwork.router.interfaceTable\""
scalar DDoSNetwork.router.lo[0] packetDropInterfaceDown:count 0
attr interpolationmode none
attr recordingmode count
attr source packetDropReasonIsInterfaceDown(packetDropped)
attr title "packet drops: interface down, count"
scalar DDoSNetwork.router.lo[0] packetDropInterfaceDown:sum(packetBytes) 0
attr interpolationmode none
attr recordingmode sum(packetBytes)
attr source packetDropReasonIsInterfaceDown(packetDropped)
attr title "packet drops: interface down, sum(packetBytes)"
scalar DDoSNetwork.router.lo[0] packetDropNoCarrier:count 0
attr interpolationmode none
attr recordingmode count
attr source packetDropReasonIsNoCarrier(packetDropped)
attr title "packet drops: no carrier, count"
scalar DDoSNetwork.router.lo[0] packetDropNoCarrier:sum(packetBytes) 0
attr interpolationmode none
attr recordingmode sum(packetBytes)
attr source packetDropReasonIsNoCarrier(packetDropped)
attr title "packet drops: no carrier, sum(packetBytes)"
par DDoSNetwork.router.eth[0].mac.phys$o.channel typename "\"ned.IdealChannel\""
par DDoSNetwork.router.eth[0].phys$i.channel typename "\"ned.IdealChannel\""
par DDoSNetwork.router.eth[0].upperLayerIn.channel typename "\"ned.IdealChannel\""
par DDoSNetwork.router.eth[0].mac.upperLayerOut.channel typename "\"ned.IdealChannel\""
par DDoSNetwork.router.eth[0].queue.red typename "\"inet.queueing.filter.RedDropper\""
par DDoSNetwork.router.eth[0].queue.red displayStringTextFormat "\"dropped %d/%p pk (%k/%l)\""
par DDoSNetwork.router.eth[0].queue.red backpressure false
par DDoSNetwork.router.eth[0].queue.red collectionModule "\"\""
par DDoSNetwork.router.eth[0].queue.red wq 0.002
par DDoSNetwork.router.eth[0].queue.red minth 5
par DDoSNetwork.router.eth[0].queue.red maxth 15
par DDoSNetwork.router.eth[0].queue.red maxp 0.1
par DDoSNetwork.router.eth[0].queue.red pkrate 8333.33
par DDoSNetwork.router.eth[0].queue.red useEcn false
par DDoSNetwork.router.eth[0].queue.red packetCapacity 15
scalar DDoSNetwork.router.eth[0].queue.red outgoingPackets:count 0
attr recordingmode count
attr source "merge(packetPushedOut, packetPulledOut)"
attr title "outgoing packets, count"
attr unit pk
scalar DDoSNetwork.router.eth[0].queue.red outgoingPacketLengths:sum 0
attr interpolationmode none
attr recordingmode sum
attr source "packetLength(merge(packetPushedOut, packetPulledOut))"
attr title "outgoing packet lengths, sum"
attr unit b
statistic DDoSNetwork.router.eth[0].queue.red outgoingPacketLengths:histogram
field count 0
field mean nan
field stddev nan
field min nan
field max nan
field sum 0
field sqrsum 0
attr interpolationmode none
attr recordingmode histogram
attr source "packetLength(merge(packetPushedOut, packetPulledOut))"
attr title "outgoing packet lengths"
attr unit b
bin	-inf	0
bin	0	0
bin	1	0
scalar DDoSNetwork.router.eth[0].queue.red flowOutgoingPacketLengths:sum 0
attr interpolationmode none
attr recordingmode sum
attr source "packetLength(demuxFlow(merge(packetPushedOut, packetPulledOut)))"
attr title "flow specific outgoing packet lengths, sum"
attr unit b
statistic DDoSNetwork.router.eth[0].queue.red flowOutgoingPacketLengths:histogram
field count 0
field mean nan
field stddev nan
field min nan
field max nan
field sum 0
field sqrsum 0
attr interpolationmode none
attr recordingmode histogram
attr source "packetLength(demuxFlow(merge(packetPushedOut, packetPulledOut)))"
attr title "flow specific outgoing packet lengths"
attr unit b
bin	-inf	0
bin	0	0
bin	1	0
scalar DDoSNetwork.router.eth[0].queue.red incomingPackets:count 0
attr recordingmode count
attr source "merge(packetPushedIn, packetPulledIn)"
attr title "incoming packets, count"
attr unit pk
scalar DDoSNetwork.router.eth[0].queue.red incomingPacketLengths:sum 0
attr interpolationmode none
attr recordingmode sum
attr source "packetLength(merge(packetPushedIn, packetPulledIn))"
attr title "incoming packet lengths, sum"
attr unit b
statistic DDoSNetwork.router.eth[0].queue.red incomingPacketLengths:histogram
field count 0
field mean nan
field stddev nan
field min nan
field max nan
field sum 0
field sqrsum 0
attr interpolationmode none
attr recordingmode histogram
attr source "packetLength(merge(packetPushedIn, packetPulledIn))"
attr title "incoming packet lengths"
attr unit b
bin	-inf	0
bin	0	0
bin	1	0
scalar DDoSNetwork.router.eth[0].queue.red flowIncomingPacketLengths:sum 0
attr interpolationmode none
attr recordingmode sum
attr source "packetLength(demuxFlow(merge(packetPushedIn, packetPulledIn)))"
attr title "flow specific incoming packet lengths, sum"
attr unit b
statistic DDoSNetwork.router.eth[0].queue.red flowIncomingPacketLengths:histogram
field count 0
field mean nan
field stddev nan
field min nan
field max nan
field sum 0
field sqrsum 0
attr interpolationmode none
attr recordingmode histogram
attr source "packetLength(demuxFlow(merge(packetPushedIn, packetPulledIn)))"
attr title "flow specific incoming packet lengths"
attr unit b
bin	-inf	0
bin	0	0
bin	1	0
scalar DDoSNetwork.router.eth[0].queue.red droppedPackets:count 0
attr recordingmode count
attr source packetDropped
attr title "dropped packets, count"
attr unit pk
scalar DDoSNetwork.router.eth[0].queue.red droppedPacketLengths:sum 0
attr interpolationmode none
attr recordingmode sum
attr source packetLength(packetDropped)
attr title "dropped packet lengths, sum"
attr unit b
statistic DDoSNetwork.router.eth[0].queue.red droppedPacketLengths:histogram
field count 0
field mean nan
field stddev nan
field min nan
field max nan
field sum 0
field sqrsum 0
attr interpolationmode none
attr recordingmode histogram
attr source packetLength(packetDropped)
attr title "dropped packet lengths"
attr unit b
bin	-inf	0
bin	0	0
bin	1	0
scalar DDoSNetwork.router.eth[0].queue.red flowDroppedPacketLengths:sum 0
attr interpolationmode none
attr recordingmode sum
attr source packetLength(demuxFlow(packetDropped))
attr title "flow specific dropped packet lengths, sum"
attr unit b
statistic DDoSNetwork.router.eth[0].queue.red flowDroppedPacketLengths:histogram
field count 0
field mean nan
field stddev nan
field min nan
field max nan
field sum 0
field sqrsum 0
attr interpolationmode none
attr recordingmode histogram
attr source packetLength(demuxFlow(packetDropped))
attr title "flow specific dropped packet lengths"
attr unit b
bin	-inf	0
bin	0	0
bin	1	0
scalar DDoSNetwork.router.eth[0].queue.red packetDropCongestion:count 0
attr interpolationmode none
attr recordingmode count
attr source packetDropReasonIsCongestion(packetDropped)
attr title "packet drop: congestion, count"
scalar DDoSNetwork.router.eth[0].queue.red packetDropCongestion:sum(packetBytes) 0
attr interpolationmode none
attr recordingmode sum(packetBytes)
attr source packetDropReasonIsCongestion(packetDropped)
attr title "packet drop: congestion, sum(packetBytes)"
par DDoSNetwork.router.eth[0].queue.fifo typename "\"inet.queueing.queue.PacketQueue\""
par DDoSNetwork.router.eth[0].queue.fifo displayStringTextFormat "\"contains %p pk (%l) pushed %u\\npulled %o removed %r dropped %d\""
par DDoSNetwork.router.eth[0].queue.fifo packetCapacity -1
par DDoSNetwork.router.eth[0].queue.fifo dataCapacity -1b
attr unit b
par DDoSNetwork.router.eth[0].queue.fifo dropperClass "\"\""
par DDoSNetwork.router.eth[0].queue.fifo comparatorClass "\"\""
par DDoSNetwork.router.eth[0].queue.fifo bufferModule "\"\""
scalar DDoSNetwork.router.eth[0].queue.fifo queueLength:last 0
attr autoWarmupFilter false
attr interpolationmode sample-hold
attr recordingmode last
attr source "warmup(atomic(constant0(packetPushEnded) + count(packetPushStarted) - count(packetPulled) - count(packetRemoved) - count(packetDropped)))"
attr title "queue length, last"
attr unit pk
scalar DDoSNetwork.router.eth[0].queue.fifo queueLength:max 0
attr autoWarmupFilter false
attr interpolationmode sample-hold
attr recordingmode max
attr source "warmup(atomic(constant0(packetPushEnded) + count(packetPushStarted) - count(packetPulled) - count(packetRemoved) - count(packetDropped)))"
attr title "queue length, max"
attr unit pk
scalar DDoSNetwork.router.eth[0].queue.fifo queueLength:timeavg 0
attr autoWarmupFilter false
attr interpolationmode sample-hold
attr recordingmode timeavg
attr source "warmup(atomic(constant0(packetPushEnded) + count(packetPushStarted) - count(packetPulled) - count(packetRemoved) - count(packetDropped)))"
attr title "queue length, timeavg"
attr unit pk
scalar DDoSNetwork.router.eth[0].queue.fifo queueBitLength:last 0
attr autoWarmupFilter false
attr interpolationmode sample-hold
attr recordingmode last
attr source "warmup(atomic(constant0(packetPushEnded) + sum(packetLength(packetPushStarted)) - sum(packetLength(packetPulled)) - sum(packetLength(packetRemoved)) - sum(packetLength(packetDropped))))"
attr title "queue bit length, last"
attr unit b
scalar DDoSNetwork.router.eth[0].queue.fifo queueBitLength:max 0
attr autoWarmupFilter false
attr interpolationmode sample-hold
attr recordingmode max
attr source "warmup(atomic(constant0(packetPushEnded) + sum(packetLength(packetPushStarted)) - sum(packetLength(packetPulled)) - sum(packetLength(packetRemoved)) - sum(packetLength(packetDropped))))"
attr title "queue bit length, max"
attr unit b
scalar DDoSNetwork.router.eth[0].queue.fifo queueBitLength:timeavg 0
attr autoWarmupFilter false
attr interpolationmode sample-hold
attr recordingmode timeavg
attr source "warmup(atomic(constant0(packetPushEnded) + sum(packetLength(packetPushStarted)) - sum(packetLength(packetPulled)) - sum(packetLength(packetRemoved)) - sum(packetLength(packetDropped))))"
attr title "queue bit length, timeavg"
attr unit b
statistic DDoSNetwork.router.eth[0].queue.fifo queueingTime:histogram
field count 0
field mean nan
field stddev nan
field min nan
field max nan
field sum 0
field sqrsum 0
attr interpolationmode none
attr recordingmode histogram
attr source queueingTime(packetPulled)
attr title "queueing times"
attr unit s
bin	-inf	0
bin	0	0
bin	1	0
scalar DDoSNetwork.router.eth[0].queue.fifo outgoingPackets:count 0
attr recordingmode count
attr source packetPulled
attr title "outgoing packets, count"
attr unit pk
scalar DDoSNetwork.router.eth[0].queue.fifo outgoingPacketLengths:sum 0
attr interpolationmode none
attr recordingmode sum
attr source packetLength(packetPulled)
attr title "outgoing packet lengths, sum"
attr unit b
statistic DDoSNetwork.router.eth[0].queue.fifo outgoingPacketLengths:histogram
field count 0
field mean nan
field stddev nan
field min nan
field max nan
field sum 0
field sqrsum 0
attr interpolationmode none
attr recordingmode histogram
attr source packetLength(packetPulled)
attr title "outgoing packet lengths"
attr unit b
bin	-inf	0
bin	0	0
bin	1	0
statistic DDoSNetwork.router.eth[0].queue.fifo flowQueueingTime:histogram
field count 0
field mean nan
field stddev nan
field min nan
field max nan
field sum 0
field sqrsum 0
attr interpolationmode none
attr recordingmode histogram
attr source queueingTime(demuxFlow(packetPulled))
attr title "flow queueing times"
attr unit s
bin	-inf	0
bin	0	0
bin	1	0
scalar DDoSNetwork.router.eth[0].queue.fifo incomingPackets:count 0
attr recordingmode count
attr source packetPushStarted
attr title "incoming packets, count"
attr unit pk
scalar DDoSNetwork.router.eth[0].queue.fifo incomingPacketLengths:sum 0
attr interpolationmode none
attr recordingmode sum
attr source packetLength(packetPushStarted)
attr title "incoming packet lengths, sum"
attr unit b
statistic DDoSNetwork.router.eth[0].queue.fifo incomingPacketLengths:histogram
field count 0
field mean nan
field stddev nan
field min nan
field max nan
field sum 0
field sqrsum 0
attr interpolationmode none
attr recordingmode histogram
attr source packetLength(packetPushStarted)
attr title "incoming packet lengths"
attr unit b
bin	-inf	0
bin	0	0
bin	1	0
scalar DDoSNetwork.router.eth[0].queue.fifo droppedPacketsQueueOverflow:count 0
attr interpolationmode none
attr recordingmode count
attr source packetDropReasonIsQueueOverflow(packetDropped)
attr title "dropped packets: queue overflow, count"
attr unit pk
scalar DDoSNetwork.router.eth[0].queue.fifo droppedPacketLengthsQueueOverflow:sum 0
attr interpolationmode none
attr recordingmode sum
attr source packetLength(packetDropReasonIsQueueOverflow(packetDropped))
attr title "dropped packet lengths: queue overflow, sum"
attr unit b
par DDoSNetwork.router.eth[0].queue typename "\"inet.examples.inet.netperfmeter.REDQueue\""
par DDoSNetwork.router.eth[0].queue displayStringTextFormat "\"contains %p pk (%l) pushed %u created %c\\n pulled %o removed %r dropped %d\""
par DDoSNetwork.router.eth[0].queue packetCapacity 1000
par DDoSNetwork.router.eth[0].queue dataCapacity -1b
attr unit b
par DDoSNetwork.router.eth[0].queue dropperClass "\"\""
scalar DDoSNetwork.router.eth[0].queue queueLength:last 0
attr autoWarmupFilter false
attr interpolationmode sample-hold
attr recordingmode last
attr source "warmup(atomic(constant0(localSignal(packetPushEnded)) + count(localSignal(packetPushStarted)) - count(localSignal(packetPulled)) - count(localSignal(packetRemoved)) - count(localSignal(packetDropped))))"
attr title "queue length, last"
attr unit pk
scalar DDoSNetwork.router.eth[0].queue queueLength:max 0
attr autoWarmupFilter false
attr interpolationmode sample-hold
attr recordingmode max
attr source "warmup(atomic(constant0(localSignal(packetPushEnded)) + count(localSignal(packetPushStarted)) - count(localSignal(packetPulled)) - count(localSignal(packetRemoved)) - count(localSignal(packetDropped))))"
attr title "queue length, max"
attr unit pk
scalar DDoSNetwork.router.eth[0].queue queueLength:timeavg 0
attr autoWarmupFilter false
attr interpolationmode sample-hold
attr recordingmode timeavg
attr source "warmup(atomic(constant0(localSignal(packetPushEnded)) + count(localSignal(packetPushStarted)) - count(localSignal(packetPulled)) - count(localSignal(packetRemoved)) - count(localSignal(packetDropped))))"
attr title "queue length, timeavg"
attr unit pk
scalar DDoSNetwork.router.eth[0].queue queueBitLength:last 0
attr autoWarmupFilter false
attr interpolationmode sample-hold
attr recordingmode last
attr source "warmup(atomic(constant0(localSignal(packetPushEnded)) + sum(packetLength(localSignal(packetPushStarted))) - sum(packetLength(localSignal(packetPulled))) - sum(packetLength(localSignal(packetRemoved))) - sum(packetLength(localSignal(packetDropped)))))"
attr title "queue bit length, last"
attr unit b
scalar DDoSNetwork.router.eth[0].queue queueBitLength:max 0
attr autoWarmupFilter false
attr interpolationmode sample-hold
attr recordingmode max
attr source "warmup(atomic(constant0(localSignal(packetPushEnded)) + sum(packetLength(localSignal(packetPushStarted))) - sum(packetLength(localSignal(packetPulled))) - sum(packetLength(localSignal(packetRemoved))) - sum(packetLength(localSignal(packetDropped)))))"
attr title "queue bit length, max"
attr unit b
scalar DDoSNetwork.router.eth[0].queue queueBitLength:timeavg 0
attr autoWarmupFilter false
attr interpolationmode sample-hold
attr recordingmode timeavg
attr source "warmup(atomic(constant0(localSignal(packetPushEnded)) + sum(packetLength(localSignal(packetPushStarted))) - sum(packetLength(localSignal(packetPulled))) - sum(packetLength(localSignal(packetRemoved))) - sum(packetLength(localSignal(packetDropped)))))"
attr title "queue bit length, timeavg"
attr unit b
statistic DDoSNetwork.router.eth[0].queue queueingTime:histogram
field count 0
field mean nan
field stddev nan
field min nan
field max nan
field sum 0
field sqrsum 0
attr interpolationmode none
attr recordingmode histogram
attr source queueingTime(localSignal(packetPulled))
attr title "queueing times"
attr unit s
bin	-inf	0
bin	0	0
bin	1	0
scalar DDoSNetwork.router.eth[0].queue outgoingPackets:count 0
attr recordingmode count
attr source localSignal(packetPulled)
attr title "outgoing packets, count"
attr unit pk
scalar DDoSNetwork.router.eth[0].queue outgoingPacketLengths:sum 0
attr interpolationmode none
attr recordingmode sum
attr source packetLength(localSignal(packetPulled))
attr title "outgoing packet lengths, sum"
attr unit b
statistic DDoSNetwork.router.eth[0].queue outgoingPacketLengths:histogram
field count 0
field mean nan
field stddev nan
field min nan
field max nan
field sum 0
field sqrsum 0
attr interpolationmode none
attr recordingmode histogram
attr source packetLength(localSignal(packetPulled))
attr title "outgoing packet lengths"
attr unit b
bin	-inf	0
bin	0	0
bin	1	0
statistic DDoSNetwork.router.eth[0].queue flowQueueingTime:histogram
field count 0
field mean nan
field stddev nan
field min nan
field max nan
field sum 0
field sqrsum 0
attr interpolationmode none
attr recordingmode histogram
attr source queueingTime(demuxFlow(localSignal(packetPulled)))
attr title "flow queueing times"
attr unit s
bin	-inf	0
bin	0	0
bin	1	0
scalar DDoSNetwork.router.eth[0].queue incomingPackets:count 0
attr recordingmode count
attr source localSignal(packetPushStarted)
attr title "incoming packets, count"
attr unit pk
scalar DDoSNetwork.router.eth[0].queue incomingPacketLengths:sum 0
attr interpolationmode none
attr recordingmode sum
attr source packetLength(localSignal(packetPushStarted))
attr title "incoming packet lengths, sum"
attr unit b
statistic DDoSNetwork.router.eth[0].queue incomingPacketLengths:histogram
field count 0
field mean nan
field stddev nan
field min nan
field max nan
field sum 0
field sqrsum 0
attr interpolationmode none
attr recordingmode histogram
attr source packetLength(localSignal(packetPushStarted))
attr title "incoming packet lengths"
attr unit b
bin	-inf	0
bin	0	0
bin	1	0
scalar DDoSNetwork.router.eth[0].queue droppedPacketsQueueOverflow:count 0
attr interpolationmode none
attr recordingmode count
attr source packetDropReasonIsQueueOverflow(localSignal(packetDropped))
attr title "dropped packets: queue overflow, count"
attr unit pk
scalar DDoSNetwork.router.eth[0].queue droppedPacketLengthsQueueOverflow:sum 0
attr interpolationmode none
attr recordingmode sum
attr source packetLength(packetDropReasonIsQueueOverflow(localSignal(packetDropped)))
attr title "dropped packet lengths: queue overflow, sum"
attr unit b
par DDoSNetwork.router.eth[0].mac typename "\"inet.linklayer.ethernet.basic.EthernetMac\""
par DDoSNetwork.router.eth[0].mac interfaceTableModule "\"DDoSNetwork.router.interfaceTable\""
par DDoSNetwork.router.eth[0].mac displayStringTextFormat "\"rate: %b\\nsent: %s, rcvd: %r\\nqueue: %q, drop: %d\""
par DDoSNetwork.router.eth[0].mac sendRawBytes false
par DDoSNetwork.router.eth[0].mac promiscuous false
par DDoSNetwork.router.eth[0].mac duplexMode true
par DDoSNetwork.router.eth[0].mac mtu 1500B
attr unit B
par DDoSNetwork.router.eth[0].mac fcsMode "\"declared\""
attr enum declared,computed
par DDoSNetwork.router.eth[0].mac stopOperationExtraTime -1s
attr unit s
par DDoSNetwork.router.eth[0].mac stopOperationTimeout 2s
attr unit s
scalar DDoSNetwork.router.eth[0].mac "simulated time" 0.8
scalar DDoSNetwork.router.eth[0].mac full-duplex 1
scalar DDoSNetwork.router.eth[0].mac "frames/sec sent" 0
scalar DDoSNetwork.router.eth[0].mac "frames/sec rcvd" 0
scalar DDoSNetwork.router.eth[0].mac "bits/sec sent" 0
scalar DDoSNetwork.router.eth[0].mac "bits/sec rcvd" 0
scalar DDoSNetwork.router.eth[0].mac "rx channel idle (%)" 100
scalar DDoSNetwork.router.eth[0].mac "rx channel utilization (%)" 0
scalar DDoSNetwork.router.eth[0].mac txPk:count 0
attr interpolationmode none
attr recordingmode count
attr source packetSentToLower
attr title "packets transmitted, count"
scalar DDoSNetwork.router.eth[0].mac txPk:sum(packetBytes) 0
attr interpolationmode none
attr recordingmode sum(packetBytes)
attr source packetSentToLower
attr title "packets transmitted, sum(packetBytes)"
scalar DDoSNetwork.router.eth[0].mac packetReceivedFromUpper:count 0
attr interpolationmode none
attr recordingmode count
attr source packetReceivedFromUpper
attr title "packet bytes from higher layer, count"
scalar DDoSNetwork.router.eth[0].mac packetReceivedFromUpper:sum(packetBytes) 0
attr interpolationmode none
attr recordingmode sum(packetBytes)
attr source packetReceivedFromUpper
attr title "packet bytes from higher layer, sum(packetBytes)"
scalar DDoSNetwork.router.eth[0].mac passedUpPk:count 0
attr interpolationmode none
attr recordingmode count
attr source packetSentToUpper
attr title "packets passed to higher layer, count"
scalar DDoSNetwork.router.eth[0].mac passedUpPk:sum(packetBytes) 0
attr interpolationmode none
attr recordingmode sum(packetBytes)
attr source packetSentToUpper
attr title "packets passed to higher layer, sum(packetBytes)"
scalar DDoSNetwork.router.eth[0].mac packetDropIncorrectlyReceived:count 0
attr interpolationmode none
attr recordingmode count
attr source packetDropReasonIsIncorrectlyReceived(packetDropped)
attr title "packet drop: incorrectly received, count"
scalar DDoSNetwork.router.eth[0].mac packetDropIncorrectlyReceived:sum(packetBytes) 0
attr interpolationmode none
attr recordingmode sum(packetBytes)
attr source packetDropReasonIsIncorrectlyReceived(packetDropped)
attr title "packet drop: incorrectly received, sum(packetBytes)"
scalar DDoSNetwork.router.eth[0].mac packetDropInterfaceDown:count 0
attr interpolationmode none
attr recordingmode count
attr source packetDropReasonIsInterfaceDown(packetDropped)
attr title "packet drop: interface down, count"
scalar DDoSNetwork.router.eth[0].mac packetDropInterfaceDown:sum(packetBytes) 0
attr interpolationmode none
attr recordingmode sum(packetBytes)
attr source packetDropReasonIsInterfaceDown(packetDropped)
attr title "packet drop: interface down, sum(packetBytes)"
scalar DDoSNetwork.router.eth[0].mac packetDropNotAddressedToUs:count 0
attr interpolationmode none
attr recordingmode count
attr source packetDropReasonIsNotAddressedToUs(packetDropped)
attr title "packet drop: not addressed to us, count"
scalar DDoSNetwork.router.eth[0].mac packetDropNotAddressedToUs:sum(packetBytes) 0
attr interpolationmode none
attr recordingmode sum(packetBytes)
attr source packetDropReasonIsNotAddressedToUs(packetDropped)
attr title "packet drop: not addressed to us, sum(packetBytes)"
scalar DDoSNetwork.router.eth[0].mac rxPausePkUnits:count 0
attr interpolationmode none
attr recordingmode count
attr title "pause units received, count"
scalar DDoSNetwork.router.eth[0].mac rxPausePkUnits:sum 0
attr interpolationmode none
attr recordingmode sum
attr title "pause units received, sum"
scalar DDoSNetwork.router.eth[0].mac txPausePkUnits:count 0
attr interpolationmode none
attr recordingmode count
attr title "pause units sent, count"
scalar DDoSNetwork.router.eth[0].mac txPausePkUnits:sum 0
attr interpolationmode none
attr recordingmode sum
attr title "pause units sent, sum"
scalar DDoSNetwork.router.eth[0].mac rxPkOk:count 0
attr interpolationmode none
attr recordingmode count
attr source rxPkOk
attr title "packets received OK, count"
scalar DDoSNetwork.router.eth[0].mac rxPkOk:sum(packetBytes) 0
attr interpolationmode none
attr recordingmode sum(packetBytes)
attr source rxPkOk
attr title "packets received OK, sum(packetBytes)"
par DDoSNetwork.router.eth[0] typename "\"inet.linklayer.ethernet.EthernetInterface\""
par DDoSNetwork.router.eth[0] displayStringTextFormat "\"%a (%i)\\n%m\""
par DDoSNetwork.router.eth[0] recordPcap false
par DDoSNetwork.router.eth[0] numPcapRecorders 0
par DDoSNetwork.router.eth[0] interfaceTableModule "\"DDoSNetwork.router.interfaceTable\""
par DDoSNetwork.router.eth[0] protocol "\"ethernetmac\""
par DDoSNetwork.router.eth[0] address "\"0A-AA-00-00-00-01\""
attr mutable ""
par DDoSNetwork.router.eth[0] duplexMode true
par DDoSNetwork.router.eth[0] csmacdSupport false
par DDoSNetwork.router.eth[0] bitrate 0bps
attr unit bps
par DDoSNetwork.router.eth[0] fcsMode "\"declared\""
attr enum declared,computed
scalar DDoSNetwork.router.eth[0] packetDropInterfaceDown:count 0
attr interpolationmode none
attr recordingmode count
attr source packetDropReasonIsInterfaceDown(packetDropped)
attr title "packet drops: interface down, count"
scalar DDoSNetwork.router.eth[0] packetDropInterfaceDown:sum(packetBytes) 0
attr interpolationmode none
attr recordingmode sum(packetBytes)
attr source packetDropReasonIsInterfaceDown(packetDropped)
attr title "packet drops: interface down, sum(packetBytes)"
scalar DDoSNetwork.router.eth[0] packetDropNoCarrier:count 0
attr interpolationmode none
attr recordingmode count
attr source packetDropReasonIsNoCarrier(packetDropped)
attr title "packet drops: no carrier, count"
scalar DDoSNetwork.router.eth[0] packetDropNoCarrier:sum(packetBytes) 0
attr interpolationmode none
attr recordingmode sum(packetBytes)
attr source packetDropReasonIsNoCarrier(packetDropped)
attr title "packet drops: no carrier, sum(packetBytes)"
par DDoSNetwork.router.eth[1].mac.phys$o.channel typename "\"ned.IdealChannel\""
par DDoSNetwork.router.eth[1].phys$i.channel typename "\"ned.IdealChannel\""
par DDoSNetwork.router.eth[1].upperLayerIn.channel typename "\"ned.IdealChannel\""
par DDoSNetwork.router.eth[1].mac.upperLayerOut.channel typename "\"ned.IdealChannel\""
par DDoSNetwork.router.eth[1].queue.red typename "\"inet.queueing.filter.RedDropper\""
par DDoSNetwork.router.eth[1].queue.red displayStringTextFormat "\"dropped %d/%p pk (%k/%l)\""
par DDoSNetwork.router.eth[1].queue.red backpressure false
par DDoSNetwork.router.eth[1].queue.red collectionModule "\"\""
par DDoSNetwork.router.eth[1].queue.red wq 0.002
par DDoSNetwork.router.eth[1].queue.red minth 5
par DDoSNetwork.router.eth[1].queue.red maxth 15
par DDoSNetwork.router.eth[1].queue.red maxp 0.1
par DDoSNetwork.router.eth[1].queue.red pkrate 8333.33
par DDoSNetwork.router.eth[1].queue.red useEcn false
par DDoSNetwork.router.eth[1].queue.red packetCapacity 15
scalar DDoSNetwork.router.eth[1].queue.red outgoingPackets:count 2
attr recordingmode count
attr source "merge(packetPushedOut, packetPulledOut)"
attr title "outgoing packets, count"
attr unit pk
scalar DDoSNetwork.router.eth[1].queue.red outgoingPacketLengths:sum 960
attr interpolationmode none
attr recordingmode sum
attr source "packetLength(merge(packetPushedOut, packetPulledOut))"
attr title "outgoing packet lengths, sum"
attr unit b
statistic DDoSNetwork.router.eth[1].queue.red outgoingPacketLengths:histogram
field count 2
field mean 480
field stddev 158.39191898579
field min 368
field max 592
field sum 960
field sqrsum 485888
attr interpolationmode none
attr recordingmode histogram
attr source "packetLength(merge(packetPushedOut, packetPulledOut))"
attr title "outgoing packet lengths"
attr unit b
bin	-inf	0
bin	310	0
bin	315	0
bin	320	0
bin	325	0
bin	330	0
bin	335	0
bin	340	0
bin	345	0
bin	350	0
bin	355	0
bin	360	0
bin	365	1
bin	370	0
bin	375	0
bin	380	0
bin	385	0
bin	390	0
bin	395	0
bin	400	0
bin	405	0
bin	410	0
bin	415	0
bin	420	0
bin	425	0
bin	430	0
bin	435	0
bin	440	0
bin	445	0
bin	450	0
bin	455	0
bin	460	0
bin	465	0
bin	470	0
bin	475	0
bin	480	0
bin	485	0
bin	490	0
bin	495	0
bin	500	0
bin	505	0
bin	510	0
bin	515	0
bin	520	0
bin	525	0
bin	530	0
bin	535	0
bin	540	0
bin	545	0
bin	550	0
bin	555	0
bin	560	0
bin	565	0
bin	570	0
bin	575	0
bin	580	0
bin	585	0
bin	590	1
bin	595	0
bin	600	0
bin	605	0
bin	610	0
bin	615	0
bin	620	0
bin	625	0
bin	630	0
bin	635	0
bin	640	0
bin	645	0
bin	650	0
scalar DDoSNetwork.router.eth[1].queue.red flowOutgoingPacketLengths:sum 0
attr interpolationmode none
attr recordingmode sum
attr source "packetLength(demuxFlow(merge(packetPushedOut, packetPulledOut)))"
attr title "flow specific outgoing packet lengths, sum"
attr unit b
statistic DDoSNetwork.router.eth[1].queue.red flowOutgoingPacketLengths:histogram
field count 0
field mean nan
field stddev nan
field min nan
field max nan
field sum 0
field sqrsum 0
attr interpolationmode none
attr recordingmode histogram
attr source "packetLength(demuxFlow(merge(packetPushedOut, packetPulledOut)))"
attr title "flow specific outgoing packet lengths"
attr unit b
bin	-inf	0
bin	0	0
bin	1	0
scalar DDoSNetwork.router.eth[1].queue.red incomingPackets:count 2
attr recordingmode count
attr source "merge(packetPushedIn, packetPulledIn)"
attr title "incoming packets, count"
attr unit pk
scalar DDoSNetwork.router.eth[1].queue.red incomingPacketLengths:sum 960
attr interpolationmode none
attr recordingmode sum
attr source "packetLength(merge(packetPushedIn, packetPulledIn))"
attr title "incoming packet lengths, sum"
attr unit b
statistic DDoSNetwork.router.eth[1].queue.red incomingPacketLengths:histogram
field count 2
field mean 480
field stddev 158.39191898579
field min 368
field max 592
field sum 960
field sqrsum 485888
attr interpolationmode none
attr recordingmode histogram
attr source "packetLength(merge(packetPushedIn, packetPulledIn))"
attr title "incoming packet lengths"
attr unit b
bin	-inf	0
bin	310	0
bin	315	0
bin	320	0
bin	325	0
bin	330	0
bin	335	0
bin	340	0
bin	345	0
bin	350	0
bin	355	0
bin	360	0
bin	365	1
bin	370	0
bin	375	0
bin	380	0
bin	385	0
bin	390	0
bin	395	0
bin	400	0
bin	405	0
bin	410	0
bin	415	0
bin	420	0
bin	425	0
bin	430	0
bin	435	0
bin	440	0
bin	445	0
bin	450	0
bin	455	0
bin	460	0
bin	465	0
bin	470	0
bin	475	0
bin	480	0
bin	485	0
bin	490	0
bin	495	0
bin	500	0
bin	505	0
bin	510	0
bin	515	0
bin	520	0
bin	525	0
bin	530	0
bin	535	0
bin	540	0
bin	545	0
bin	550	0
bin	555	0
bin	560	0
bin	565	0
bin	570	0
bin	575	0
bin	580	0
bin	585	0
bin	590	1
bin	595	0
bin	600	0
bin	605	0
bin	610	0
bin	615	0
bin	620	0
bin	625	0
bin	630	0
bin	635	0
bin	640	0
bin	645	0
bin	650	0
scalar DDoSNetwork.router.eth[1].queue.red flowIncomingPacketLengths:sum 0
attr interpolationmode none
attr recordingmode sum
attr source "packetLength(demuxFlow(merge(packetPushedIn, packetPulledIn)))"
attr title "flow specific incoming packet lengths, sum"
attr unit b
statistic DDoSNetwork.router.eth[1].queue.red flowIncomingPacketLengths:histogram
field count 0
field mean nan
field stddev nan
field min nan
field max nan
field sum 0
field sqrsum 0
attr interpolationmode none
attr recordingmode histogram
attr source "packetLength(demuxFlow(merge(packetPushedIn, packetPulledIn)))"
attr title "flow specific incoming packet lengths"
attr unit b
bin	-inf	0
bin	0	0
bin	1	0
scalar DDoSNetwork.router.eth[1].queue.red droppedPackets:count 0
attr recordingmode count
attr source packetDropped
attr title "dropped packets, count"
attr unit pk
scalar DDoSNetwork.router.eth[1].queue.red droppedPacketLengths:sum 0
attr interpolationmode none
attr recordingmode sum
attr source packetLength(packetDropped)
attr title "dropped packet lengths, sum"
attr unit b
statistic DDoSNetwork.router.eth[1].queue.red droppedPacketLengths:histogram
field count 0
field mean nan
field stddev nan
field min nan
field max nan
field sum 0
field sqrsum 0
attr interpolationmode none
attr recordingmode histogram
attr source packetLength(packetDropped)
attr title "dropped packet lengths"
attr unit b
bin	-inf	0
bin	0	0
bin	1	0
scalar DDoSNetwork.router.eth[1].queue.red flowDroppedPacketLengths:sum 0
attr interpolationmode none
attr recordingmode sum
attr source packetLength(demuxFlow(packetDropped))
attr title "flow specific dropped packet lengths, sum"
attr unit b
statistic DDoSNetwork.router.eth[1].queue.red flowDroppedPacketLengths:histogram
field count 0
field mean nan
field stddev nan
field min nan
field max nan
field sum 0
field sqrsum 0
attr interpolationmode none
attr recordingmode histogram
attr source packetLength(demuxFlow(packetDropped))
attr title "flow specific dropped packet lengths"
attr unit b
bin	-inf	0
bin	0	0
bin	1	0
scalar DDoSNetwork.router.eth[1].queue.red packetDropCongestion:count 0
attr interpolationmode none
attr recordingmode count
attr source packetDropReasonIsCongestion(packetDropped)
attr title "packet drop: congestion, count"
scalar DDoSNetwork.router.eth[1].queue.red packetDropCongestion:sum(packetBytes) 0
attr interpolationmode none
attr recordingmode sum(packetBytes)
attr source packetDropReasonIsCongestion(packetDropped)
attr title "packet drop: congestion, sum(packetBytes)"
par DDoSNetwork.router.eth[1].queue.fifo typename "\"inet.queueing.queue.PacketQueue\""
par DDoSNetwork.router.eth[1].queue.fifo displayStringTextFormat "\"contains %p pk (%l) pushed %u\\npulled %o removed %r dropped %d\""
par DDoSNetwork.router.eth[1].queue.fifo packetCapacity -1
par DDoSNetwork.router.eth[1].queue.fifo dataCapacity -1b
attr unit b
par DDoSNetwork.router.eth[1].queue.fifo dropperClass "\"\""
par DDoSNetwork.router.eth[1].queue.fifo comparatorClass "\"\""
par DDoSNetwork.router.eth[1].queue.fifo bufferModule "\"\""
scalar DDoSNetwork.router.eth[1].queue.fifo queueLength:last 0
attr autoWarmupFilter false
attr interpolationmode sample-hold
attr recordingmode last
attr source "warmup(atomic(constant0(packetPushEnded) + count(packetPushStarted) - count(packetPulled) - count(packetRemoved) - count(packetDropped)))"
attr title "queue length, last"
attr unit pk
scalar DDoSNetwork.router.eth[1].queue.fifo queueLength:max 0
attr autoWarmupFilter false
attr interpolationmode sample-hold
attr recordingmode max
attr source "warmup(atomic(constant0(packetPushEnded) + count(packetPushStarted) - count(packetPulled) - count(packetRemoved) - count(packetDropped)))"
attr title "queue length, max"
attr unit pk
scalar DDoSNetwork.router.eth[1].queue.fifo queueLength:timeavg 0
attr autoWarmupFilter false
attr interpolationmode sample-hold
attr recordingmode timeavg
attr source "warmup(atomic(constant0(packetPushEnded) + count(packetPushStarted) - count(packetPulled) - count(packetRemoved) - count(packetDropped)))"
attr title "queue length, timeavg"
attr unit pk
scalar DDoSNetwork.router.eth[1].queue.fifo queueBitLength:last 0
attr autoWarmupFilter false
attr interpolationmode sample-hold
attr recordingmode last
attr source "warmup(atomic(constant0(packetPushEnded) + sum(packetLength(packetPushStarted)) - sum(packetLength(packetPulled)) - sum(packetLength(packetRemoved)) - sum(packetLength(packetDropped))))"
attr title "queue bit length, last"
attr unit b
scalar DDoSNetwork.router.eth[1].queue.fifo queueBitLength:max 0
attr autoWarmupFilter false
attr interpolationmode sample-hold
attr recordingmode max
attr source "warmup(atomic(constant0(packetPushEnded) + sum(packetLength(packetPushStarted)) - sum(packetLength(packetPulled)) - sum(packetLength(packetRemoved)) - sum(packetLength(packetDropped))))"
attr title "queue bit length, max"
attr unit b
scalar DDoSNetwork.router.eth[1].queue.fifo queueBitLength:timeavg 0
attr autoWarmupFilter false
attr interpolationmode sample-hold
attr recordingmode timeavg
attr source "warmup(atomic(constant0(packetPushEnded) + sum(packetLength(packetPushStarted)) - sum(packetLength(packetPulled)) - sum(packetLength(packetRemoved)) - sum(packetLength(packetDropped))))"
attr title "queue bit length, timeavg"
attr unit b
statistic DDoSNetwork.router.eth[1].queue.fifo queueingTime:histogram
field count 2
field mean 0
field stddev 0
field min 0
field max 0
field sum 0
field sqrsum 0
attr interpolationmode none
attr recordingmode histogram
attr source queueingTime(packetPulled)
attr title "queueing times"
attr unit s
bin	-inf	0
bin	-0.5	0
bin	-0.48	0
bin	-0.46	0
bin	-0.44	0
bin	-0.42	0
bin	-0.4	0
bin	-0.38	0
bin	-0.36	0
bin	-0.34	0
bin	-0.32	0
bin	-0.3	0
bin	-0.28	0
bin	-0.26	0
bin	-0.24	0
bin	-0.22	0
bin	-0.2	0
bin	-0.18	0
bin	-0.16	0
bin	-0.14	0
bin	-0.12	0
bin	-0.1	0
bin	-0.08	0
bin	-0.06	0
bin	-0.04	0
bin	-0.02	0
bin	0	2
bin	0.02	0
bin	0.04	0
bin	0.06	0
bin	0.08	0
bin	0.1	0
bin	0.12	0
bin	0.14	0
bin	0.16	0
bin	0.18	0
bin	0.2	0
bin	0.22	0
bin	0.24	0
bin	0.26	0
bin	0.28	0
bin	0.3	0
bin	0.32	0
bin	0.34	0
bin	0.36	0
bin	0.38	0
bin	0.4	0
bin	0.42	0
bin	0.44	0
bin	0.46	0
bin	0.48	0
bin	0.5	0
scalar DDoSNetwork.router.eth[1].queue.fifo outgoingPackets:count 2
attr recordingmode count
attr source packetPulled
attr title "outgoing packets, count"
attr unit pk
scalar DDoSNetwork.router.eth[1].queue.fifo outgoingPacketLengths:sum 960
attr interpolationmode none
attr recordingmode sum
attr source packetLength(packetPulled)
attr title "outgoing packet lengths, sum"
attr unit b
statistic DDoSNetwork.router.eth[1].queue.fifo outgoingPacketLengths:histogram
field count 2
field mean 480
field stddev 158.39191898579
field min 368
field max 592
field sum 960
field sqrsum 485888
attr interpolationmode none
attr recordingmode histogram
attr source packetLength(packetPulled)
attr title "outgoing packet lengths"
attr unit b
bin	-inf	0
bin	310	0
bin	315	0
bin	320	0
bin	325	0
bin	330	0
bin	335	0
bin	340	0
bin	345	0
bin	350	0
bin	355	0
bin	360	0
bin	365	1
bin	370	0
bin	375	0
bin	380	0
bin	385	0
bin	390	0
bin	395	0
bin	400	0
bin	405	0
bin	410	0
bin	415	0
bin	420	0
bin	425	0
bin	430	0
bin	435	0
bin	440	0
bin	445	0
bin	450	0
bin	455	0
bin	460	0
bin	465	0
bin	470	0
bin	475	0
bin	480	0
bin	485	0
bin	490	0
bin	495	0
bin	500	0
bin	505	0
bin	510	0
bin	515	0
bin	520	0
bin	525	0
bin	530	0
bin	535	0
bin	540	0
bin	545	0
bin	550	0
bin	555	0
bin	560	0
bin	565	0
bin	570	0
bin	575	0
bin	580	0
bin	585	0
bin	590	1
bin	595	0
bin	600	0
bin	605	0
bin	610	0
bin	615	0
bin	620	0
bin	625	0
bin	630	0
bin	635	0
bin	640	0
bin	645	0
bin	650	0
statistic DDoSNetwork.router.eth[1].queue.fifo flowQueueingTime:histogram
field count 0
field mean nan
field stddev nan
field min nan
field max nan
field sum 0
field sqrsum 0
attr interpolationmode none
attr recordingmode histogram
attr source queueingTime(demuxFlow(packetPulled))
attr title "flow queueing times"
attr unit s
bin	-inf	0
bin	0	0
bin	1	0
scalar DDoSNetwork.router.eth[1].queue.fifo incomingPackets:count 2
attr recordingmode count
attr source packetPushStarted
attr title "incoming packets, count"
attr unit pk
scalar DDoSNetwork.router.eth[1].queue.fifo incomingPacketLengths:sum 960
attr interpolationmode none
attr recordingmode sum
attr source packetLength(packetPushStarted)
attr title "incoming packet lengths, sum"
attr unit b
statistic DDoSNetwork.router.eth[1].queue.fifo incomingPacketLengths:histogram
field count 2
field mean 480
field stddev 158.39191898579
field min 368
field max 592
field sum 960
field sqrsum 485888
attr interpolationmode none
attr recordingmode histogram
attr source packetLength(packetPushStarted)
attr title "incoming packet lengths"
attr unit b
bin	-inf	0
bin	310	0
bin	315	0
bin	320	0
bin	325	0
bin	330	0
bin	335	0
bin	340	0
bin	345	0
bin	350	0
bin	355	0
bin	360	0
bin	365	1
bin	370	0
bin	375	0
bin	380	0
bin	385	0
bin	390	0
bin	395	0
bin	400	0
bin	405	0
bin	410	0
bin	415	0
bin	420	0
bin	425	0
bin	430	0
bin	435	0
bin	440	0
bin	445	0
bin	450	0
bin	455	0
bin	460	0
bin	465	0
bin	470	0
bin	475	0
bin	480	0
bin	485	0
bin	490	0
bin	495	0
bin	500	0
bin	505	0
bin	510	0
bin	515	0
bin	520	0
bin	525	0
bin	530	0
bin	535	0
bin	540	0
bin	545	0
bin	550	0
bin	555	0
bin	560	0
bin	565	0
bin	570	0
bin	575	0
bin	580	0
bin	585	0
bin	590	1
bin	595	0
bin	600	0
bin	605	0
bin	610	0
bin	615	0
bin	620	0
bin	625	0
bin	630	0
bin	635	0
bin	640	0
bin	645	0
bin	650	0
scalar DDoSNetwork.router.eth[1].queue.fifo droppedPacketsQueueOverflow:count 0
attr interpolationmode none
attr recordingmode count
attr source packetDropReasonIsQueueOverflow(packetDropped)
attr title "dropped packets: queue overflow, count"
attr unit pk
scalar DDoSNetwork.router.eth[1].queue.fifo droppedPacketLengthsQueueOverflow:sum 0
attr interpolationmode none
attr recordingmode sum
attr source packetLength(packetDropReasonIsQueueOverflow(packetDropped))
attr title "dropped packet lengths: queue overflow, sum"
attr unit b
par DDoSNetwork.router.eth[1].queue typename "\"inet.examples.inet.netperfmeter.REDQueue\""
par DDoSNetwork.router.eth[1].queue displayStringTextFormat "\"contains %p pk (%l) pushed %u created %c\\n pulled %o removed %r dropped %d\""
par DDoSNetwork.router.eth[1].queue packetCapacity 1000
par DDoSNetwork.router.eth[1].queue dataCapacity -1b
attr unit b
par DDoSNetwork.router.eth[1].queue dropperClass "\"\""
scalar DDoSNetwork.router.eth[1].queue queueLength:last -2
attr autoWarmupFilter false
attr interpolationmode sample-hold
attr recordingmode last
attr source "warmup(atomic(constant0(localSignal(packetPushEnded)) + count(localSignal(packetPushStarted)) - count(localSignal(packetPulled)) - count(localSignal(packetRemoved)) - count(localSignal(packetDropped))))"
attr title "queue length, last"
attr unit pk
scalar DDoSNetwork.router.eth[1].queue queueLength:max 0
attr autoWarmupFilter false
attr interpolationmode sample-hold
attr recordingmode max
attr source "warmup(atomic(constant0(localSignal(packetPushEnded)) + count(localSignal(packetPushStarted)) - count(localSignal(packetPulled)) - count(localSignal(packetRemoved)) - count(localSignal(packetDropped))))"
attr title "queue length, max"
attr unit pk
scalar DDoSNetwork.router.eth[1].queue queueLength:timeavg -1.99997095
attr autoWarmupFilter false
attr interpolationmode sample-hold
attr recordingmode timeavg
attr source "warmup(atomic(constant0(localSignal(packetPushEnded)) + count(localSignal(packetPushStarted)) - count(localSignal(packetPulled)) - count(localSignal(packetRemoved)) - count(localSignal(packetDropped))))"
attr title "queue length, timeavg"
attr unit pk
scalar DDoSNetwork.router.eth[1].queue queueBitLength:last -960
attr autoWarmupFilter false
attr interpolationmode sample-hold
attr recordingmode last
attr source "warmup(atomic(constant0(localSignal(packetPushEnded)) + sum(packetLength(localSignal(packetPushStarted))) - sum(packetLength(localSignal(packetPulled))) - sum(packetLength(localSignal(packetRemoved))) - sum(packetLength(localSignal(packetDropped)))))"
attr title "queue bit length, last"
attr unit b
scalar DDoSNetwork.router.eth[1].queue queueBitLength:max 0
attr autoWarmupFilter false
attr interpolationmode sample-hold
attr recordingmode max
attr source "warmup(atomic(constant0(localSignal(packetPushEnded)) + sum(packetLength(localSignal(packetPushStarted))) - sum(packetLength(localSignal(packetPulled))) - sum(packetLength(localSignal(packetRemoved))) - sum(packetLength(localSignal(packetDropped)))))"
attr title "queue bit length, max"
attr unit b
scalar DDoSNetwork.router.eth[1].queue queueBitLength:timeavg -959.9844292
attr autoWarmupFilter false
attr interpolationmode sample-hold
attr recordingmode timeavg
attr source "warmup(atomic(constant0(localSignal(packetPushEnded)) + sum(packetLength(localSignal(packetPushStarted))) - sum(packetLength(localSignal(packetPulled))) - sum(packetLength(localSignal(packetRemoved))) - sum(packetLength(localSignal(packetDropped)))))"
attr title "queue bit length, timeavg"
attr unit b
statistic DDoSNetwork.router.eth[1].queue queueingTime:histogram
field count 2
field mean 0
field stddev 0
field min 0
field max 0
field sum 0
field sqrsum 0
attr interpolationmode none
attr recordingmode histogram
attr source queueingTime(localSignal(packetPulled))
attr title "queueing times"
attr unit s
bin	-inf	0
bin	-0.5	0
bin	-0.48	0
bin	-0.46	0
bin	-0.44	0
bin	-0.42	0
bin	-0.4	0
bin	-0.38	0
bin	-0.36	0
bin	-0.34	0
bin	-0.32	0
bin	-0.3	0
bin	-0.28	0
bin	-0.26	0
bin	-0.24	0
bin	-0.22	0
bin	-0.2	0
bin	-0.18	0
bin	-0.16	0
bin	-0.14	0
bin	-0.12	0
bin	-0.1	0
bin	-0.08	0
bin	-0.06	0
bin	-0.04	0
bin	-0.02	0
bin	0	2
bin	0.02	0
bin	0.04	0
bin	0.06	0
bin	0.08	0
bin	0.1	0
bin	0.12	0
bin	0.14	0
bin	0.16	0
bin	0.18	0
bin	0.2	0
bin	0.22	0
bin	0.24	0
bin	0.26	0
bin	0.28	0
bin	0.3	0
bin	0.32	0
bin	0.34	0
bin	0.36	0
bin	0.38	0
bin	0.4	0
bin	0.42	0
bin	0.44	0
bin	0.46	0
bin	0.48	0
bin	0.5	0
scalar DDoSNetwork.router.eth[1].queue outgoingPackets:count 2
attr recordingmode count
attr source localSignal(packetPulled)
attr title "outgoing packets, count"
attr unit pk
scalar DDoSNetwork.router.eth[1].queue outgoingPacketLengths:sum 960
attr interpolationmode none
attr recordingmode sum
attr source packetLength(localSignal(packetPulled))
attr title "outgoing packet lengths, sum"
attr unit b
statistic DDoSNetwork.router.eth[1].queue outgoingPacketLengths:histogram
field count 2
field mean 480
field stddev 158.39191898579
field min 368
field max 592
field sum 960
field sqrsum 485888
attr interpolationmode none
attr recordingmode histogram
attr source packetLength(localSignal(packetPulled))
attr title "outgoing packet lengths"
attr unit b
bin	-inf	0
bin	310	0
bin	315	0
bin	320	0
bin	325	0
bin	330	0
bin	335	0
bin	340	0
bin	345	0
bin	350	0
bin	355	0
bin	360	0
bin	365	1
bin	370	0
bin	375	0
bin	380	0
bin	385	0
bin	390	0
bin	395	0
bin	400	0
bin	405	0
bin	410	0
bin	415	0
bin	420	0
bin	425	0
bin	430	0
bin	435	0
bin	440	0
bin	445	0
bin	450	0
bin	455	0
bin	460	0
bin	465	0
bin	470	0
bin	475	0
bin	480	0
bin	485	0
bin	490	0
bin	495	0
bin	500	0
bin	505	0
bin	510	0
bin	515	0
bin	520	0
bin	525	0
bin	530	0
bin	535	0
bin	540	0
bin	545	0
bin	550	0
bin	555	0
bin	560	0
bin	565	0
bin	570	0
bin	575	0
bin	580	0
bin	585	0
bin	590	1
bin	595	0
bin	600	0
bin	605	0
bin	610	0
bin	615	0
bin	620	0
bin	625	0
bin	630	0
bin	635	0
bin	640	0
bin	645	0
bin	650	0
statistic DDoSNetwork.router.eth[1].queue flowQueueingTime:histogram
field count 0
field mean nan
field stddev nan
field min nan
field max nan
field sum 0
field sqrsum 0
attr interpolationmode none
attr recordingmode histogram
attr source queueingTime(demuxFlow(localSignal(packetPulled)))
attr title "flow queueing times"
attr unit s
bin	-inf	0
bin	0	0
bin	1	0
scalar DDoSNetwork.router.eth[1].queue incomingPackets:count 0
attr recordingmode count
attr source localSignal(packetPushStarted)
attr title "incoming packets, count"
attr unit pk
scalar DDoSNetwork.router.eth[1].queue incomingPacketLengths:sum 0
attr interpolationmode none
attr recordingmode sum
attr source packetLength(localSignal(packetPushStarted))
attr title "incoming packet lengths, sum"
attr unit b
statistic DDoSNetwork.router.eth[1].queue incomingPacketLengths:histogram
field count 0
field mean nan
field stddev nan
field min nan
field max nan
field sum 0
field sqrsum 0
attr interpolationmode none
attr recordingmode histogram
attr source packetLength(localSignal(packetPushStarted))
attr title "incoming packet lengths"
attr unit b
bin	-inf	0
bin	0	0
bin	1	0
scalar DDoSNetwork.router.eth[1].queue droppedPacketsQueueOverflow:count 0
attr interpolationmode none
attr recordingmode count
attr source packetDropReasonIsQueueOverflow(localSignal(packetDropped))
attr title "dropped packets: queue overflow, count"
attr unit pk
scalar DDoSNetwork.router.eth[1].queue droppedPacketLengthsQueueOverflow:sum 0
attr interpolationmode none
attr recordingmode sum
attr source packetLength(packetDropReasonIsQueueOverflow(localSignal(packetDropped)))
attr title "dropped packet lengths: queue overflow, sum"
attr unit b
par DDoSNetwork.router.eth[1].mac typename "\"inet.linklayer.ethernet.basic.EthernetMac\""
par DDoSNetwork.router.eth[1].mac interfaceTableModule "\"DDoSNetwork.router.interfaceTable\""
par DDoSNetwork.router.eth[1].mac displayStringTextFormat "\"rate: %b\\nsent: %s, rcvd: %r\\nqueue: %q, drop: %d\""
par DDoSNetwork.router.eth[1].mac sendRawBytes false
par DDoSNetwork.router.eth[1].mac promiscuous false
par DDoSNetwork.router.eth[1].mac duplexMode true
par DDoSNetwork.router.eth[1].mac mtu 1500B
attr unit B
par DDoSNetwork.router.eth[1].mac fcsMode "\"declared\""
attr enum declared,computed
par DDoSNetwork.router.eth[1].mac stopOperationExtraTime -1s
attr unit s
par DDoSNetwork.router.eth[1].mac stopOperationTimeout 2s
attr unit s
scalar DDoSNetwork.router.eth[1].mac "simulated time" 0.8
scalar DDoSNetwork.router.eth[1].mac full-duplex 1
scalar DDoSNetwork.router.eth[1].mac "frames/sec sent" 2.5
scalar DDoSNetwork.router.eth[1].mac "frames/sec rcvd" 2.5
scalar DDoSNetwork.router.eth[1].mac "bits/sec sent" 1380
scalar DDoSNetwork.router.eth[1].mac "bits/sec rcvd" 1280
scalar DDoSNetwork.router.eth[1].mac "rx channel idle (%)" 99.99856
scalar DDoSNetwork.router.eth[1].mac "rx channel utilization (%)" 0.00144
scalar DDoSNetwork.router.eth[1].mac txPk:count 2
attr interpolationmode none
attr recordingmode count
attr source packetSentToLower
attr title "packets transmitted, count"
scalar DDoSNetwork.router.eth[1].mac txPk:sum(packetBytes) 138
attr interpolationmode none
attr recordingmode sum(packetBytes)
attr source packetSentToLower
attr title "packets transmitted, sum(packetBytes)"
scalar DDoSNetwork.router.eth[1].mac packetReceivedFromUpper:count 2
attr interpolationmode none
attr recordingmode count
attr source packetReceivedFromUpper
attr title "packet bytes from higher layer, count"
scalar DDoSNetwork.router.eth[1].mac packetReceivedFromUpper:sum(packetBytes) 120
attr interpolationmode none
attr recordingmode sum(packetBytes)
attr source packetReceivedFromUpper
attr title "packet bytes from higher layer, sum(packetBytes)"
scalar DDoSNetwork.router.eth[1].mac passedUpPk:count 2
attr interpolationmode none
attr recordingmode count
attr source packetSentToUpper
attr title "packets passed to higher layer, count"
scalar DDoSNetwork.router.eth[1].mac passedUpPk:sum(packetBytes) 128
attr interpolationmode none
attr recordingmode sum(packetBytes)
attr source packetSentToUpper
attr title "packets passed to higher layer, sum(packetBytes)"
scalar DDoSNetwork.router.eth[1].mac packetDropIncorrectlyReceived:count 0
attr interpolationmode none
attr recordingmode count
attr source packetDropReasonIsIncorrectlyReceived(packetDropped)
attr title "packet drop: incorrectly received, count"
scalar DDoSNetwork.router.eth[1].mac packetDropIncorrectlyReceived:sum(packetBytes) 0
attr interpolationmode none
attr recordingmode sum(packetBytes)
attr source packetDropReasonIsIncorrectlyReceived(packetDropped)
attr title "packet drop: incorrectly received, sum(packetBytes)"
scalar DDoSNetwork.router.eth[1].mac packetDropInterfaceDown:count 0
attr interpolationmode none
attr recordingmode count
attr source packetDropReasonIsInterfaceDown(packetDropped)
attr title "packet drop: interface down, count"
scalar DDoSNetwork.router.eth[1].mac packetDropInterfaceDown:sum(packetBytes) 0
attr interpolationmode none
attr recordingmode sum(packetBytes)
attr source packetDropReasonIsInterfaceDown(packetDropped)
attr title "packet drop: interface down, sum(packetBytes)"
scalar DDoSNetwork.router.eth[1].mac packetDropNotAddressedToUs:count 0
attr interpolationmode none
attr recordingmode count
attr source packetDropReasonIsNotAddressedToUs(packetDropped)
attr title "packet drop: not addressed to us, count"
scalar DDoSNetwork.router.eth[1].mac packetDropNotAddressedToUs:sum(packetBytes) 0
attr interpolationmode none
attr recordingmode sum(packetBytes)
attr source packetDropReasonIsNotAddressedToUs(packetDropped)
attr title "packet drop: not addressed to us, sum(packetBytes)"
scalar DDoSNetwork.router.eth[1].mac rxPausePkUnits:count 0
attr interpolationmode none
attr recordingmode count
attr title "pause units received, count"
scalar DDoSNetwork.router.eth[1].mac rxPausePkUnits:sum 0
attr interpolationmode none
attr recordingmode sum
attr title "pause units received, sum"
scalar DDoSNetwork.router.eth[1].mac txPausePkUnits:count 0
attr interpolationmode none
attr recordingmode count
attr title "pause units sent, count"
scalar DDoSNetwork.router.eth[1].mac txPausePkUnits:sum 0
attr interpolationmode none
attr recordingmode sum
attr title "pause units sent, sum"
scalar DDoSNetwork.router.eth[1].mac rxPkOk:count 2
attr interpolationmode none
attr recordingmode count
attr source rxPkOk
attr title "packets received OK, count"
scalar DDoSNetwork.router.eth[1].mac rxPkOk:sum(packetBytes) 128
attr interpolationmode none
attr recordingmode sum(packetBytes)
attr source rxPkOk
attr title "packets received OK, sum(packetBytes)"
par DDoSNetwork.router.eth[1] typename "\"inet.linklayer.ethernet.EthernetInterface\""
par DDoSNetwork.router.eth[1] displayStringTextFormat "\"%a (%i)\\n%m\""
par DDoSNetwork.router.eth[1] recordPcap false
par DDoSNetwork.router.eth[1] numPcapRecorders 0
par DDoSNetwork.router.eth[1] interfaceTableModule "\"DDoSNetwork.router.interfaceTable\""
par DDoSNetwork.router.eth[1] protocol "\"ethernetmac\""
par DDoSNetwork.router.eth[1] address "\"0A-AA-00-00-00-02\""
attr mutable ""
par DDoSNetwork.router.eth[1] duplexMode true
par DDoSNetwork.router.eth[1] csmacdSupport false
par DDoSNetwork.router.eth[1] bitrate 0bps
attr unit bps
par DDoSNetwork.router.eth[1] fcsMode "\"declared\""
attr enum declared,computed
scalar DDoSNetwork.router.eth[1] packetDropInterfaceDown:count 0
attr interpolationmode none
attr recordingmode count
attr source packetDropReasonIsInterfaceDown(packetDropped)
attr title "packet drops: interface down, count"
scalar DDoSNetwork.router.eth[1] packetDropInterfaceDown:sum(packetBytes) 0
attr interpolationmode none
attr recordingmode sum(packetBytes)
attr source packetDropReasonIsInterfaceDown(packetDropped)
attr title "packet drops: interface down, sum(packetBytes)"
scalar DDoSNetwork.router.eth[1] packetDropNoCarrier:count 0
attr interpolationmode none
attr recordingmode count
attr source packetDropReasonIsNoCarrier(packetDropped)
attr title "packet drops: no carrier, count"
scalar DDoSNetwork.router.eth[1] packetDropNoCarrier:sum(packetBytes) 0
attr interpolationmode none
attr recordingmode sum(packetBytes)
attr source packetDropReasonIsNoCarrier(packetDropped)
attr title "packet drops: no carrier, sum(packetBytes)"
par DDoSNetwork.router.eth[2].mac.phys$o.channel typename "\"ned.IdealChannel\""
par DDoSNetwork.router.eth[2].phys$i.channel typename "\"ned.IdealChannel\""
par DDoSNetwork.router.eth[2].upperLayerIn.channel typename "\"ned.IdealChannel\""
par DDoSNetwork.router.eth[2].mac.upperLayerOut.channel typename "\"ned.IdealChannel\""
par DDoSNetwork.router.eth[2].queue.red typename "\"inet.queueing.filter.RedDropper\""
par DDoSNetwork.router.eth[2].queue.red displayStringTextFormat "\"dropped %d/%p pk (%k/%l)\""
par DDoSNetwork.router.eth[2].queue.red backpressure false
par DDoSNetwork.router.eth[2].queue.red collectionModule "\"\""
par DDoSNetwork.router.eth[2].queue.red wq 0.002
par DDoSNetwork.router.eth[2].queue.red minth 5
par DDoSNetwork.router.eth[2].queue.red maxth 15
par DDoSNetwork.router.eth[2].queue.red maxp 0.1
par DDoSNetwork.router.eth[2].queue.red pkrate 8333.33
par DDoSNetwork.router.eth[2].queue.red useEcn false
par DDoSNetwork.router.eth[2].queue.red packetCapacity 15
scalar DDoSNetwork.router.eth[2].queue.red outgoingPackets:count 2
attr recordingmode count
attr source "merge(packetPushedOut, packetPulledOut)"
attr title "outgoing packets, count"
attr unit pk
scalar DDoSNetwork.router.eth[2].queue.red outgoingPacketLengths:sum 960
attr interpolationmode none
attr recordingmode sum
attr source "packetLength(merge(packetPushedOut, packetPulledOut))"
attr title "outgoing packet lengths, sum"
attr unit b
statistic DDoSNetwork.router.eth[2].queue.red outgoingPacketLengths:histogram
field count 2
field mean 480
field stddev 158.39191898579
field min 368
field max 592
field sum 960
field sqrsum 485888
attr interpolationmode none
attr recordingmode histogram
attr source "packetLength(merge(packetPushedOut, packetPulledOut))"
attr title "outgoing packet lengths"
attr unit b
bin	-inf	0
bin	310	0
bin	315	0
bin	320	0
bin	325	0
bin	330	0
bin	335	0
bin	340	0
bin	345	0
bin	350	0
bin	355	0
bin	360	0
bin	365	1
bin	370	0
bin	375	0
bin	380	0
bin	385	0
bin	390	0
bin	395	0
bin	400	0
bin	405	0
bin	410	0
bin	415	0
bin	420	0
bin	425	0
bin	430	0
bin	435	0
bin	440	0
bin	445	0
bin	450	0
bin	455	0
bin	460	0
bin	465	0
bin	470	0
bin	475	0
bin	480	0
bin	485	0
bin	490	0
bin	495	0
bin	500	0
bin	505	0
bin	510	0
bin	515	0
bin	520	0
bin	525	0
bin	530	0
bin	535	0
bin	540	0
bin	545	0
bin	550	0
bin	555	0
bin	560	0
bin	565	0
bin	570	0
bin	575	0
bin	580	0
bin	585	0
bin	590	1
bin	595	0
bin	600	0
bin	605	0
bin	610	0
bin	615	0
bin	620	0
bin	625	0
bin	630	0
bin	635	0
bin	640	0
bin	645	0
bin	650	0
scalar DDoSNetwork.router.eth[2].queue.red flowOutgoingPacketLengths:sum 0
attr interpolationmode none
attr recordingmode sum
attr source "packetLength(demuxFlow(merge(packetPushedOut, packetPulledOut)))"
attr title "flow specific outgoing packet lengths, sum"
attr unit b
statistic DDoSNetwork.router.eth[2].queue.red flowOutgoingPacketLengths:histogram
field count 0
field mean nan
field stddev nan
field min nan
field max nan
field sum 0
field sqrsum 0
attr interpolationmode none
attr recordingmode histogram
attr source "packetLength(demuxFlow(merge(packetPushedOut, packetPulledOut)))"
attr title "flow specific outgoing packet lengths"
attr unit b
bin	-inf	0
bin	0	0
bin	1	0
scalar DDoSNetwork.router.eth[2].queue.red incomingPackets:count 2
attr recordingmode count
attr source "merge(packetPushedIn, packetPulledIn)"
attr title "incoming packets, count"
attr unit pk
scalar DDoSNetwork.router.eth[2].queue.red incomingPacketLengths:sum 960
attr interpolationmode none
attr recordingmode sum
attr source "packetLength(merge(packetPushedIn, packetPulledIn))"
attr title "incoming packet lengths, sum"
attr unit b
statistic DDoSNetwork.router.eth[2].queue.red incomingPacketLengths:histogram
field count 2
field mean 480
field stddev 158.39191898579
field min 368
field max 592
field sum 960
field sqrsum 485888
attr interpolationmode none
attr recordingmode histogram
attr source "packetLength(merge(packetPushedIn, packetPulledIn))"
attr title "incoming packet lengths"
attr unit b
bin	-inf	0
bin	310	0
bin	315	0
bin	320	0
bin	325	0
bin	330	0
bin	335	0
bin	340	0
bin	345	0
bin	350	0
bin	355	0
bin	360	0
bin	365	1
bin	370	0
bin	375	0
bin	380	0
bin	385	0
bin	390	0
bin	395	0
bin	400	0
bin	405	0
bin	410	0
bin	415	0
bin	420	0
bin	425	0
bin	430	0
bin	435	0
bin	440	0
bin	445	0
bin	450	0
bin	455	0
bin	460	0
bin	465	0
bin	470	0
bin	475	0
bin	480	0
bin	485	0
bin	490	0
bin	495	0
bin	500	0
bin	505	0
bin	510	0
bin	515	0
bin	520	0
bin	525	0
bin	530	0
bin	535	0
bin	540	0
bin	545	0
bin	550	0
bin	555	0
bin	560	0
bin	565	0
bin	570	0
bin	575	0
bin	580	0
bin	585	0
bin	590	1
bin	595	0
bin	600	0
bin	605	0
bin	610	0
bin	615	0
bin	620	0
bin	625	0
bin	630	0
bin	635	0
bin	640	0
bin	645	0
bin	650	0
scalar DDoSNetwork.router.eth[2].queue.red flowIncomingPacketLengths:sum 0
attr interpolationmode none
attr recordingmode sum
attr source "packetLength(demuxFlow(merge(packetPushedIn, packetPulledIn)))"
attr title "flow specific incoming packet lengths, sum"
attr unit b
[...]
par DDoSNetwork.visualizer.canvasVisualizer.interfaceTableVisualizer visualizationSubjectModule "\"^.^.^\""
par DDoSNetwork.visualizer.canvasVisualizer.interfaceTableVisualizer tags "\"\""
par DDoSNetwork.visualizer.canvasVisualizer.interfaceTableVisualizer networkNodeVisualizerModule "\"^.networkNodeVisualizer\""
par DDoSNetwork.visualizer.canvasVisualizer.interfaceTableVisualizer displayInterfaceTables false
par DDoSNetwork.visualizer.canvasVisualizer.interfaceTableVisualizer displayWiredInterfacesAtConnections true
par DDoSNetwork.visualizer.canvasVisualizer.interfaceTableVisualizer displayBackground false
par DDoSNetwork.visualizer.canvasVisualizer.interfaceTableVisualizer nodeFilter "\"*\""
attr mutable ""
par DDoSNetwork.visualizer.canvasVisualizer.interfaceTableVisualizer interfaceFilter "\"not(lo*)\""
attr mutable ""
par DDoSNetwork.visualizer.canvasVisualizer.interfaceTableVisualizer format "\"%N %\\\\%a%/%l\""
attr mutable ""
par DDoSNetwork.visualizer.canvasVisualizer.interfaceTableVisualizer placementHint "\"top\""
par DDoSNetwork.visualizer.canvasVisualizer.interfaceTableVisualizer placementPriority 0
par DDoSNetwork.visualizer.canvasVisualizer.interfaceTableVisualizer font "\"<default>\""
par DDoSNetwork.visualizer.canvasVisualizer.interfaceTableVisualizer textColor "\"#005030\""
par DDoSNetwork.visualizer.canvasVisualizer.interfaceTableVisualizer backgroundColor "\"white\""
par DDoSNetwork.visualizer.canvasVisualizer.interfaceTableVisualizer opacity 1
par DDoSNetwork.visualizer.canvasVisualizer.interfaceTableVisualizer zIndex 10
par DDoSNetwork.visualizer.canvasVisualizer.dataLinkVisualizer typename "\"inet.visualizer.canvas.linklayer.DataLinkCanvasVisualizer\""
par DDoSNetwork.visualizer.canvasVisualizer.dataLinkVisualizer visualizationTargetModule "\"^.^.^\""
par DDoSNetwork.visualizer.canvasVisualizer.dataLinkVisualizer visualizationSubjectModule "\"^.^.^\""
par DDoSNetwork.visualizer.canvasVisualizer.dataLinkVisualizer tags "\"\""
par DDoSNetwork.visualizer.canvasVisualizer.dataLinkVisualizer displayLinks false
par DDoSNetwork.visualizer.canvasVisualizer.dataLinkVisualizer activityLevel "\"service\""
attr enum service,peer,protocol
par DDoSNetwork.visualizer.canvasVisualizer.dataLinkVisualizer nodeFilter "\"*\""
attr mutable ""
par DDoSNetwork.visualizer.canvasVisualizer.dataLinkVisualizer interfaceFilter "\"*\""
attr mutable ""
par DDoSNetwork.visualizer.canvasVisualizer.dataLinkVisualizer packetFilter "(omnetpp::cValueHolder)holder: \"*\""
attr mutable ""
par DDoSNetwork.visualizer.canvasVisualizer.dataLinkVisualizer lineColor "\"darkcyan\""
par DDoSNetwork.visualizer.canvasVisualizer.dataLinkVisualizer lineStyle "\"solid\""
par DDoSNetwork.visualizer.canvasVisualizer.dataLinkVisualizer lineWidth 3
par DDoSNetwork.visualizer.canvasVisualizer.dataLinkVisualizer lineShift 16
par DDoSNetwork.visualizer.canvasVisualizer.dataLinkVisualizer lineShiftMode "\"normal\""
par DDoSNetwork.visualizer.canvasVisualizer.dataLinkVisualizer lineContactSpacing 3
par DDoSNetwork.visualizer.canvasVisualizer.dataLinkVisualizer lineContactMode "\"rectangular\""
attr enum circular,rectangular
par DDoSNetwork.visualizer.canvasVisualizer.dataLinkVisualizer labelFormat "\"%n\""
par DDoSNetwork.visualizer.canvasVisualizer.dataLinkVisualizer labelFont "\"<default>, 8px\""
par DDoSNetwork.visualizer.canvasVisualizer.dataLinkVisualizer labelColor "\"darkcyan\""
par DDoSNetwork.visualizer.canvasVisualizer.dataLinkVisualizer fadeOutMode "\"realTime\""
attr enum realTime,animationTime,simulationTime
par DDoSNetwork.visualizer.canvasVisualizer.dataLinkVisualizer fadeOutTime 1s
attr unit s
par DDoSNetwork.visualizer.canvasVisualizer.dataLinkVisualizer fadeOutAnimationSpeed 0
par DDoSNetwork.visualizer.canvasVisualizer.dataLinkVisualizer holdAnimationTime 0s
attr unit s
par DDoSNetwork.visualizer.canvasVisualizer.dataLinkVisualizer zIndex 2
par DDoSNetwork.visualizer.canvasVisualizer.linkBreakVisualizer typename "\"inet.visualizer.canvas.linklayer.LinkBreakCanvasVisualizer\""
par DDoSNetwork.visualizer.canvasVisualizer.linkBreakVisualizer visualizationTargetModule "\"^.^.^\""
par DDoSNetwork.visualizer.canvasVisualizer.linkBreakVisualizer visualizationSubjectModule "\"^.^.^\""
par DDoSNetwork.visualizer.canvasVisualizer.linkBreakVisualizer tags "\"\""
par DDoSNetwork.visualizer.canvasVisualizer.linkBreakVisualizer displayLinkBreaks false
par DDoSNetwork.visualizer.canvasVisualizer.linkBreakVisualizer nodeFilter "\"*\""
attr mutable ""
par DDoSNetwork.visualizer.canvasVisualizer.linkBreakVisualizer interfaceFilter "\"*\""
attr mutable ""
par DDoSNetwork.visualizer.canvasVisualizer.linkBreakVisualizer packetFilter "(omnetpp::cValueHolder)holder: \"*\""
attr mutable ""
par DDoSNetwork.visualizer.canvasVisualizer.linkBreakVisualizer icon "\"status/stop\""
par DDoSNetwork.visualizer.canvasVisualizer.linkBreakVisualizer iconTintAmount 0
par DDoSNetwork.visualizer.canvasVisualizer.linkBreakVisualizer iconTintColor "\"\""
par DDoSNetwork.visualizer.canvasVisualizer.linkBreakVisualizer fadeOutMode "\"realTime\""
attr enum realTime,animationTime,simulationTime
par DDoSNetwork.visualizer.canvasVisualizer.linkBreakVisualizer fadeOutTime 1s
attr unit s
par DDoSNetwork.visualizer.canvasVisualizer.linkBreakVisualizer fadeOutAnimationSpeed 0
par DDoSNetwork.visualizer.canvasVisualizer.linkBreakVisualizer zIndex 2
par DDoSNetwork.visualizer.canvasVisualizer.ieee80211Visualizer typename "\"inet.visualizer.canvas.linklayer.Ieee80211CanvasVisualizer\""
par DDoSNetwork.visualizer.canvasVisualizer.ieee80211Visualizer visualizationTargetModule "\"^.^.^\""
par DDoSNetwork.visualizer.canvasVisualizer.ieee80211Visualizer visualizationSubjectModule "\"^.^.^\""
par DDoSNetwork.visualizer.canvasVisualizer.ieee80211Visualizer tags "\"\""
par DDoSNetwork.visualizer.canvasVisualizer.ieee80211Visualizer networkNodeVisualizerModule "\"^.networkNodeVisualizer\""
par DDoSNetwork.visualizer.canvasVisualizer.ieee80211Visualizer displayAssociations false
par DDoSNetwork.visualizer.canvasVisualizer.ieee80211Visualizer nodeFilter "\"*\""
attr mutable ""
par DDoSNetwork.visualizer.canvasVisualizer.ieee80211Visualizer interfaceFilter "\"*\""
attr mutable ""
par DDoSNetwork.visualizer.canvasVisualizer.ieee80211Visualizer minPower -85dBm
attr unit dBm
par DDoSNetwork.visualizer.canvasVisualizer.ieee80211Visualizer maxPower -50dBm
attr unit dBm
par DDoSNetwork.visualizer.canvasVisualizer.ieee80211Visualizer icons "\"misc/signal_power_0 misc/signal_power_1 misc/signal_power_2 misc/signal_power_3\""
par DDoSNetwork.visualizer.canvasVisualizer.ieee80211Visualizer iconColor "\"dark\""
par DDoSNetwork.visualizer.canvasVisualizer.ieee80211Visualizer labelFont "\"<default>\""
par DDoSNetwork.visualizer.canvasVisualizer.ieee80211Visualizer labelColor "\"black\""
par DDoSNetwork.visualizer.canvasVisualizer.ieee80211Visualizer placementHint "\"top\""
par DDoSNetwork.visualizer.canvasVisualizer.ieee80211Visualizer placementPriority 0
par DDoSNetwork.visualizer.canvasVisualizer.ieee80211Visualizer zIndex 2
par DDoSNetwork.visualizer.canvasVisualizer.networkRouteVisualizer typename "\"inet.visualizer.canvas.networklayer.NetworkRouteCanvasVisualizer\""
par DDoSNetwork.visualizer.canvasVisualizer.networkRouteVisualizer visualizationTargetModule "\"^.^.^\""
par DDoSNetwork.visualizer.canvasVisualizer.networkRouteVisualizer visualizationSubjectModule "\"^.^.^\""
par DDoSNetwork.visualizer.canvasVisualizer.networkRouteVisualizer tags "\"\""
par DDoSNetwork.visualizer.canvasVisualizer.networkRouteVisualizer displayRoutes false
par DDoSNetwork.visualizer.canvasVisualizer.networkRouteVisualizer startPathSignal "\"packetReceivedFromUpper\""
par DDoSNetwork.visualizer.canvasVisualizer.networkRouteVisualizer extendPathSignal "\"packetReceivedFromLower\""
par DDoSNetwork.visualizer.canvasVisualizer.networkRouteVisualizer endPathSignal "\"packetSentToUpper\""
par DDoSNetwork.visualizer.canvasVisualizer.networkRouteVisualizer nodeFilter "\"*\""
attr mutable ""
par DDoSNetwork.visualizer.canvasVisualizer.networkRouteVisualizer packetFilter "(omnetpp::cValueHolder)holder: \"*\""
attr mutable ""
par DDoSNetwork.visualizer.canvasVisualizer.networkRouteVisualizer lineColor "\"dark\""
par DDoSNetwork.visualizer.canvasVisualizer.networkRouteVisualizer lineStyle "\"solid\""
par DDoSNetwork.visualizer.canvasVisualizer.networkRouteVisualizer lineWidth 3
par DDoSNetwork.visualizer.canvasVisualizer.networkRouteVisualizer lineSmooth false
par DDoSNetwork.visualizer.canvasVisualizer.networkRouteVisualizer lineShift 16
par DDoSNetwork.visualizer.canvasVisualizer.networkRouteVisualizer lineShiftMode "\"normal\""
par DDoSNetwork.visualizer.canvasVisualizer.networkRouteVisualizer lineContactSpacing 3
par DDoSNetwork.visualizer.canvasVisualizer.networkRouteVisualizer lineContactMode "\"rectangular\""
attr enum circular,rectangular
par DDoSNetwork.visualizer.canvasVisualizer.networkRouteVisualizer labelFormat "\"%n\""
par DDoSNetwork.visualizer.canvasVisualizer.networkRouteVisualizer labelFont "\"<default>, 8px\""
par DDoSNetwork.visualizer.canvasVisualizer.networkRouteVisualizer labelColor "\"\""
par DDoSNetwork.visualizer.canvasVisualizer.networkRouteVisualizer fadeOutMode "\"realTime\""
attr enum realTime,animationTime,simulationTime
par DDoSNetwork.visualizer.canvasVisualizer.networkRouteVisualizer fadeOutTime 1s
attr unit s
par DDoSNetwork.visualizer.canvasVisualizer.networkRouteVisualizer fadeOutAnimationSpeed 0
par DDoSNetwork.visualizer.canvasVisualizer.networkRouteVisualizer zIndex 3
par DDoSNetwork.visualizer.canvasVisualizer.routingTableVisualizer typename "\"inet.visualizer.canvas.networklayer.RoutingTableCanvasVisualizer\""
par DDoSNetwork.visualizer.canvasVisualizer.routingTableVisualizer visualizationTargetModule "\"^.^.^\""
par DDoSNetwork.visualizer.canvasVisualizer.routingTableVisualizer visualizationSubjectModule "\"^.^.^\""
par DDoSNetwork.visualizer.canvasVisualizer.routingTableVisualizer tags "\"\""
par DDoSNetwork.visualizer.canvasVisualizer.routingTableVisualizer displayRoutingTables false
par DDoSNetwork.visualizer.canvasVisualizer.routingTableVisualizer displayRoutesIndividually true
par DDoSNetwork.visualizer.canvasVisualizer.routingTableVisualizer displayLabels true
par DDoSNetwork.visualizer.canvasVisualizer.routingTableVisualizer destinationFilter "\"*\""
attr mutable ""
par DDoSNetwork.visualizer.canvasVisualizer.routingTableVisualizer nodeFilter "\"*\""
attr mutable ""
par DDoSNetwork.visualizer.canvasVisualizer.routingTableVisualizer lineColor "\"black\""
par DDoSNetwork.visualizer.canvasVisualizer.routingTableVisualizer lineStyle "\"solid\""
par DDoSNetwork.visualizer.canvasVisualizer.routingTableVisualizer lineWidth 2
par DDoSNetwork.visualizer.canvasVisualizer.routingTableVisualizer lineShift 16
par DDoSNetwork.visualizer.canvasVisualizer.routingTableVisualizer lineShiftMode "\"normal\""
par DDoSNetwork.visualizer.canvasVisualizer.routingTableVisualizer lineContactSpacing 3
par DDoSNetwork.visualizer.canvasVisualizer.routingTableVisualizer lineContactMode "\"rectangular\""
attr enum circular,rectangular
par DDoSNetwork.visualizer.canvasVisualizer.routingTableVisualizer labelFormat "\"%d/%m -> %g (%n)\""
attr mutable ""
par DDoSNetwork.visualizer.canvasVisualizer.routingTableVisualizer labelFont "\"<default>, 8px\""
par DDoSNetwork.visualizer.canvasVisualizer.routingTableVisualizer labelColor "\"black\""
par DDoSNetwork.visualizer.canvasVisualizer.routingTableVisualizer zIndex 0
par DDoSNetwork.visualizer.canvasVisualizer.transportRouteVisualizer typename "\"inet.visualizer.canvas.transportlayer.TransportRouteCanvasVisualizer\""
par DDoSNetwork.visualizer.canvasVisualizer.transportRouteVisualizer visualizationTargetModule "\"^.^.^\""
par DDoSNetwork.visualizer.canvasVisualizer.transportRouteVisualizer visualizationSubjectModule "\"^.^.^\""
par DDoSNetwork.visualizer.canvasVisualizer.transportRouteVisualizer tags "\"\""
par DDoSNetwork.visualizer.canvasVisualizer.transportRouteVisualizer displayRoutes false
par DDoSNetwork.visualizer.canvasVisualizer.transportRouteVisualizer startPathSignal "\"packetReceivedFromUpper\""
par DDoSNetwork.visualizer.canvasVisualizer.transportRouteVisualizer extendPathSignal "\"packetReceivedFromLower\""
par DDoSNetwork.visualizer.canvasVisualizer.transportRouteVisualizer endPathSignal "\"packetSentToUpper\""
par DDoSNetwork.visualizer.canvasVisualizer.transportRouteVisualizer nodeFilter "\"*\""
attr mutable ""
par DDoSNetwork.visualizer.canvasVisualizer.transportRouteVisualizer packetFilter "(omnetpp::cValueHolder)holder: \"*\""
attr mutable ""
par DDoSNetwork.visualizer.canvasVisualizer.transportRouteVisualizer lineColor "\"dark\""
par DDoSNetwork.visualizer.canvasVisualizer.transportRouteVisualizer lineStyle "\"solid\""
par DDoSNetwork.visualizer.canvasVisualizer.transportRouteVisualizer lineWidth 3
par DDoSNetwork.visualizer.canvasVisualizer.transportRouteVisualizer lineSmooth false
par DDoSNetwork.visualizer.canvasVisualizer.transportRouteVisualizer lineShift 16
par DDoSNetwork.visualizer.canvasVisualizer.transportRouteVisualizer lineShiftMode "\"normal\""
par DDoSNetwork.visualizer.canvasVisualizer.transportRouteVisualizer lineContactSpacing 3
par DDoSNetwork.visualizer.canvasVisualizer.transportRouteVisualizer lineContactMode "\"rectangular\""
attr enum circular,rectangular
par DDoSNetwork.visualizer.canvasVisualizer.transportRouteVisualizer labelFormat "\"%n\""
par DDoSNetwork.visualizer.canvasVisualizer.transportRouteVisualizer labelFont "\"<default>, 8px\""
par DDoSNetwork.visualizer.canvasVisualizer.transportRouteVisualizer labelColor "\"\""
par DDoSNetwork.visualizer.canvasVisualizer.transportRouteVisualizer fadeOutMode "\"realTime\""
attr enum realTime,animationTime,simulationTime
par DDoSNetwork.visualizer.canvasVisualizer.transportRouteVisualizer fadeOutTime 1s
attr unit s
par DDoSNetwork.visualizer.canvasVisualizer.transportRouteVisualizer fadeOutAnimationSpeed 0
par DDoSNetwork.visualizer.canvasVisualizer.transportRouteVisualizer zIndex 4
par DDoSNetwork.visualizer.canvasVisualizer.transportConnectionVisualizer typename "\"inet.visualizer.canvas.transportlayer.TransportConnectionCanvasVisualizer\""
par DDoSNetwork.visualizer.canvasVisualizer.transportConnectionVisualizer visualizationTargetModule "\"^.^.^\""
par DDoSNetwork.visualizer.canvasVisualizer.transportConnectionVisualizer visualizationSubjectModule "\"^.^.^\""
par DDoSNetwork.visualizer.canvasVisualizer.transportConnectionVisualizer tags "\"\""
par DDoSNetwork.visualizer.canvasVisualizer.transportConnectionVisualizer networkNodeVisualizerModule "\"^.networkNodeVisualizer\""
par DDoSNetwork.visualizer.canvasVisualizer.transportConnectionVisualizer displayTransportConnections false
par DDoSNetwork.visualizer.canvasVisualizer.transportConnectionVisualizer sourceNodeFilter "\"*\""
attr mutable ""
par DDoSNetwork.visualizer.canvasVisualizer.transportConnectionVisualizer sourcePortFilter "\"*\""
attr mutable ""
par DDoSNetwork.visualizer.canvasVisualizer.transportConnectionVisualizer destinationNodeFilter "\"*\""
attr mutable ""
par DDoSNetwork.visualizer.canvasVisualizer.transportConnectionVisualizer destinationPortFilter "\"*\""
attr mutable ""
par DDoSNetwork.visualizer.canvasVisualizer.transportConnectionVisualizer icon "\"misc/marker_s\""
par DDoSNetwork.visualizer.canvasVisualizer.transportConnectionVisualizer iconColor "\"dark\""
par DDoSNetwork.visualizer.canvasVisualizer.transportConnectionVisualizer labelFont "\"<default>\""
par DDoSNetwork.visualizer.canvasVisualizer.transportConnectionVisualizer labelColor "\"black\""
par DDoSNetwork.visualizer.canvasVisualizer.transportConnectionVisualizer placementHint "\"top\""
par DDoSNetwork.visualizer.canvasVisualizer.transportConnectionVisualizer placementPriority 0
par DDoSNetwork.visualizer.canvasVisualizer.transportConnectionVisualizer zIndex 4
par DDoSNetwork.visualizer.canvasVisualizer.failureProtectionConfigurationVisualizer typename "\"inet.visualizer.canvas.configurator.FailureProtectionConfigurationCanvasVisualizer\""
par DDoSNetwork.visualizer.canvasVisualizer.failureProtectionConfigurationVisualizer visualizationTargetModule "\"^.^.^\""
par DDoSNetwork.visualizer.canvasVisualizer.failureProtectionConfigurationVisualizer visualizationSubjectModule "\"^.^.^\""
par DDoSNetwork.visualizer.canvasVisualizer.failureProtectionConfigurationVisualizer tags "\"\""
par DDoSNetwork.visualizer.canvasVisualizer.failureProtectionConfigurationVisualizer displayTrees false
par DDoSNetwork.visualizer.canvasVisualizer.failureProtectionConfigurationVisualizer lineColor "\"dark\""
par DDoSNetwork.visualizer.canvasVisualizer.failureProtectionConfigurationVisualizer lineStyle "\"solid\""
par DDoSNetwork.visualizer.canvasVisualizer.failureProtectionConfigurationVisualizer lineWidth 3
par DDoSNetwork.visualizer.canvasVisualizer.failureProtectionConfigurationVisualizer lineSmooth false
par DDoSNetwork.visualizer.canvasVisualizer.failureProtectionConfigurationVisualizer lineShift 16
par DDoSNetwork.visualizer.canvasVisualizer.failureProtectionConfigurationVisualizer lineShiftMode "\"normal\""
par DDoSNetwork.visualizer.canvasVisualizer.failureProtectionConfigurationVisualizer lineContactSpacing 3
par DDoSNetwork.visualizer.canvasVisualizer.failureProtectionConfigurationVisualizer lineContactMode "\"rectangular\""
attr enum circular,rectangular
par DDoSNetwork.visualizer.canvasVisualizer.failureProtectionConfigurationVisualizer failureProtectionConfiguratorModule "\"failureProtectionConfigurator\""
par DDoSNetwork.visualizer.canvasVisualizer.failureProtectionConfigurationVisualizer streamFilter "\"*\""
par DDoSNetwork.visualizer.canvasVisualizer.failureProtectionConfigurationVisualizer zIndex 3
par DDoSNetwork.visualizer.canvasVisualizer.streamRedundancyConfigurationVisualizer typename "\"inet.visualizer.canvas.configurator.StreamRedundancyConfigurationCanvasVisualizer\""
par DDoSNetwork.visualizer.canvasVisualizer.streamRedundancyConfigurationVisualizer visualizationTargetModule "\"^.^.^\""
par DDoSNetwork.visualizer.canvasVisualizer.streamRedundancyConfigurationVisualizer visualizationSubjectModule "\"^.^.^\""
par DDoSNetwork.visualizer.canvasVisualizer.streamRedundancyConfigurationVisualizer tags "\"\""
par DDoSNetwork.visualizer.canvasVisualizer.streamRedundancyConfigurationVisualizer displayTrees false
par DDoSNetwork.visualizer.canvasVisualizer.streamRedundancyConfigurationVisualizer lineColor "\"dark\""
par DDoSNetwork.visualizer.canvasVisualizer.streamRedundancyConfigurationVisualizer lineStyle "\"solid\""
par DDoSNetwork.visualizer.canvasVisualizer.streamRedundancyConfigurationVisualizer lineWidth 3
par DDoSNetwork.visualizer.canvasVisualizer.streamRedundancyConfigurationVisualizer lineSmooth false
par DDoSNetwork.visualizer.canvasVisualizer.streamRedundancyConfigurationVisualizer lineShift 16
par DDoSNetwork.visualizer.canvasVisualizer.streamRedundancyConfigurationVisualizer lineShiftMode "\"normal\""
par DDoSNetwork.visualizer.canvasVisualizer.streamRedundancyConfigurationVisualizer lineContactSpacing 3
par DDoSNetwork.visualizer.canvasVisualizer.streamRedundancyConfigurationVisualizer lineContactMode "\"rectangular\""
attr enum circular,rectangular
par DDoSNetwork.visualizer.canvasVisualizer.streamRedundancyConfigurationVisualizer streamRedundancyConfiguratorModule "\"streamRedundancyConfigurator\""
par DDoSNetwork.visualizer.canvasVisualizer.streamRedundancyConfigurationVisualizer streamFilter "\"*\""
par DDoSNetwork.visualizer.canvasVisualizer.streamRedundancyConfigurationVisualizer zIndex 3
par DDoSNetwork.visualizer.canvasVisualizer typename "\"inet.visualizer.canvas.integrated.IntegratedCanvasVisualizer\""
par DDoSNetwork.visualizer typename "\"inet.visualizer.common.IntegratedVisualizer\""
par DDoSNetwork typename "\"DDoSNetwork\""
par DDoSNetwork numAttackers 10
par DDoSNetwork numLegitimateClients 2

